data_BOHXIH

_audit_creation_method RASPA-1.0
_audit_creation_date 2020-12-11
_audit_author_name 'Rocio Bueno-Perez'

_cell_length_a    17.8736
_cell_length_b    17.8736
_cell_length_c    17.8736
_cell_angle_alpha 90
_cell_angle_beta  90
_cell_angle_gamma 90
_cell_volume      5710

_symmetry_cell_setting          triclinic
_symmetry_space_group_name_Hall 'P 1'
_symmetry_space_group_name_H-M  'P 1'
_symmetry_Int_Tables_number     1

_symmetry_equiv_pos_as_xyz 'x,y,z'

loop_
_atom_site_label
_atom_site_type_symbol
_atom_site_fract_x
_atom_site_fract_y
_atom_site_fract_z
_atom_site_charge
Zr1      Zr     0.360800000000     0.511200000000     0.008800000000     0          
O2       O      0.309500000000     0.624400000000     0.029700000000     0          
O3       O      0.291900000000     0.406100000000     0.007200000000     0          
C4       C      0.336800000000     0.684200000000     0.022500000000     0          
C5       C      0.306500000000     0.342300000000     0.001300000000     0          
C6       C      0.242800000000     0.286900000000     0.002700000000     0          
H7       H      0.190200000000     0.304300000000     0.998000000000     0          
O8       O      0.407100000000     0.705600000000     0.020900000000     0          
O9       O      0.372900000000     0.314000000000     0.996300000000     0          
C10      C      0.288400000000     0.754100000000     0.026400000000     0          
H11      H      0.316000000000     0.794800000000     0.024100000000     0          
O12      O      0.436200000000     0.577100000000     0.090400000000     0          
H13      H      0.411100000000     0.608400000000     0.123900000000     0          
H14      H      0.393000000000     0.393000000000     0.107000000000     0          
O15      O      0.426000000000     0.426000000000     0.074000000000     0          
Zr16     Zr     0.139200000000     0.988800000000     0.008800000000     0          
O17      O      0.190500000000     0.875600000000     0.029700000000     0          
O18      O      0.208100000000     0.093900000000     0.007200000000     0          
C19      C      0.163200000000     0.815800000000     0.022500000000     0          
C20      C      0.193500000000     0.157700000000     0.001300000000     0          
C21      C      0.257200000000     0.213100000000     0.002700000000     0          
H22      H      0.309800000000     0.195700000000     0.998000000000     0          
O23      O      0.092900000000     0.794400000000     0.020900000000     0          
O24      O      0.127100000000     0.186000000000     0.996300000000     0          
C25      C      0.211600000000     0.745900000000     0.026400000000     0          
H26      H      0.184000000000     0.705200000000     0.024100000000     0          
O27      O      0.063800000000     0.922900000000     0.090400000000     0          
H28      H      0.088900000000     0.891600000000     0.123900000000     0          
H29      H      0.107000000000     0.107000000000     0.107000000000     0          
O30      O      0.074000000000     0.074000000000     0.074000000000     0          
Zr31     Zr     0.360800000000     0.988800000000     0.491200000000     0          
O32      O      0.309500000000     0.875600000000     0.470300000000     0          
O33      O      0.291900000000     0.093900000000     0.492800000000     0          
C34      C      0.336800000000     0.815800000000     0.477500000000     0          
C35      C      0.306500000000     0.157700000000     0.498700000000     0          
C36      C      0.242800000000     0.213100000000     0.497300000000     0          
H37      H      0.190200000000     0.195700000000     0.502000000000     0          
O38      O      0.407100000000     0.794400000000     0.479100000000     0          
O39      O      0.372900000000     0.186000000000     0.503700000000     0          
C40      C      0.288400000000     0.745900000000     0.473600000000     0          
H41      H      0.316000000000     0.705200000000     0.475900000000     0          
O42      O      0.436200000000     0.922900000000     0.409600000000     0          
H43      H      0.411100000000     0.891600000000     0.376100000000     0          
H44      H      0.393000000000     0.107000000000     0.393000000000     0          
O45      O      0.426000000000     0.074000000000     0.426000000000     0          
Zr46     Zr     0.139200000000     0.511200000000     0.491200000000     0          
O47      O      0.190500000000     0.624400000000     0.470300000000     0          
O48      O      0.208100000000     0.406100000000     0.492800000000     0          
C49      C      0.163200000000     0.684200000000     0.477500000000     0          
C50      C      0.193500000000     0.342300000000     0.498700000000     0          
C51      C      0.257200000000     0.286900000000     0.497300000000     0          
H52      H      0.309800000000     0.304300000000     0.502000000000     0          
O53      O      0.092900000000     0.705600000000     0.479100000000     0          
O54      O      0.127100000000     0.314000000000     0.503700000000     0          
C55      C      0.211600000000     0.754100000000     0.473600000000     0          
H56      H      0.184000000000     0.794800000000     0.475900000000     0          
O57      O      0.063800000000     0.577100000000     0.409600000000     0          
H58      H      0.088900000000     0.608400000000     0.376100000000     0          
H59      H      0.107000000000     0.393000000000     0.393000000000     0          
O60      O      0.074000000000     0.426000000000     0.426000000000     0          
Zr61     Zr     0.008800000000     0.360800000000     0.511200000000     0          
O62      O      0.029700000000     0.309500000000     0.624400000000     0          
O63      O      0.007200000000     0.291900000000     0.406100000000     0          
C64      C      0.022500000000     0.336800000000     0.684200000000     0          
C65      C      0.001300000000     0.306500000000     0.342300000000     0          
C66      C      0.002700000000     0.242800000000     0.286900000000     0          
H67      H      0.998000000000     0.190200000000     0.304300000000     0          
O68      O      0.020900000000     0.407100000000     0.705600000000     0          
O69      O      0.996300000000     0.372900000000     0.314000000000     0          
C70      C      0.026400000000     0.288400000000     0.754100000000     0          
H71      H      0.024100000000     0.316000000000     0.794800000000     0          
O72      O      0.090400000000     0.436200000000     0.577100000000     0          
H73      H      0.123900000000     0.411100000000     0.608400000000     0          
Zr74     Zr     0.491200000000     0.139200000000     0.511200000000     0          
O75      O      0.470300000000     0.190500000000     0.624400000000     0          
O76      O      0.492800000000     0.208100000000     0.406100000000     0          
C77      C      0.477500000000     0.163200000000     0.684200000000     0          
C78      C      0.498700000000     0.193500000000     0.342300000000     0          
C79      C      0.497300000000     0.257200000000     0.286900000000     0          
H80      H      0.502000000000     0.309800000000     0.304300000000     0          
O81      O      0.479100000000     0.092900000000     0.705600000000     0          
O82      O      0.503700000000     0.127100000000     0.314000000000     0          
C83      C      0.473600000000     0.211600000000     0.754100000000     0          
H84      H      0.475900000000     0.184000000000     0.794800000000     0          
O85      O      0.409600000000     0.063800000000     0.577100000000     0          
H86      H      0.376100000000     0.088900000000     0.608400000000     0          
Zr87     Zr     0.008800000000     0.139200000000     0.988800000000     0          
O88      O      0.029700000000     0.190500000000     0.875600000000     0          
O89      O      0.007200000000     0.208100000000     0.093900000000     0          
C90      C      0.022500000000     0.163200000000     0.815800000000     0          
C91      C      0.001300000000     0.193500000000     0.157700000000     0          
C92      C      0.002700000000     0.257200000000     0.213100000000     0          
H93      H      0.998000000000     0.309800000000     0.195700000000     0          
O94      O      0.020900000000     0.092900000000     0.794400000000     0          
O95      O      0.996300000000     0.127100000000     0.186000000000     0          
C96      C      0.026400000000     0.211600000000     0.745900000000     0          
H97      H      0.024100000000     0.184000000000     0.705200000000     0          
O98      O      0.090400000000     0.063800000000     0.922900000000     0          
H99      H      0.123900000000     0.088900000000     0.891600000000     0          
Zr100    Zr     0.491200000000     0.360800000000     0.988800000000     0          
O101     O      0.470300000000     0.309500000000     0.875600000000     0          
O102     O      0.492800000000     0.291900000000     0.093900000000     0          
C103     C      0.477500000000     0.336800000000     0.815800000000     0          
C104     C      0.498700000000     0.306500000000     0.157700000000     0          
C105     C      0.497300000000     0.242800000000     0.213100000000     0          
H106     H      0.502000000000     0.190200000000     0.195700000000     0          
O107     O      0.479100000000     0.407100000000     0.794400000000     0          
O108     O      0.503700000000     0.372900000000     0.186000000000     0          
C109     C      0.473600000000     0.288400000000     0.745900000000     0          
H110     H      0.475900000000     0.316000000000     0.705200000000     0          
O111     O      0.409600000000     0.436200000000     0.922900000000     0          
H112     H      0.376100000000     0.411100000000     0.891600000000     0          
Zr113    Zr     0.511200000000     0.008800000000     0.360800000000     0          
O114     O      0.624400000000     0.029700000000     0.309500000000     0          
O115     O      0.406100000000     0.007200000000     0.291900000000     0          
C116     C      0.684200000000     0.022500000000     0.336800000000     0          
C117     C      0.342300000000     0.001300000000     0.306500000000     0          
C118     C      0.286900000000     0.002700000000     0.242800000000     0          
H119     H      0.304300000000     0.998000000000     0.190200000000     0          
O120     O      0.705600000000     0.020900000000     0.407100000000     0          
O121     O      0.314000000000     0.996300000000     0.372900000000     0          
C122     C      0.754100000000     0.026400000000     0.288400000000     0          
H123     H      0.794800000000     0.024100000000     0.316000000000     0          
O124     O      0.577100000000     0.090400000000     0.436200000000     0          
H125     H      0.608400000000     0.123900000000     0.411100000000     0          
Zr126    Zr     0.511200000000     0.491200000000     0.139200000000     0          
O127     O      0.624400000000     0.470300000000     0.190500000000     0          
O128     O      0.406100000000     0.492800000000     0.208100000000     0          
C129     C      0.684200000000     0.477500000000     0.163200000000     0          
C130     C      0.342300000000     0.498700000000     0.193500000000     0          
C131     C      0.286900000000     0.497300000000     0.257200000000     0          
H132     H      0.304300000000     0.502000000000     0.309800000000     0          
O133     O      0.705600000000     0.479100000000     0.092900000000     0          
O134     O      0.314000000000     0.503700000000     0.127100000000     0          
C135     C      0.754100000000     0.473600000000     0.211600000000     0          
H136     H      0.794800000000     0.475900000000     0.184000000000     0          
O137     O      0.577100000000     0.409600000000     0.063800000000     0          
H138     H      0.608400000000     0.376100000000     0.088900000000     0          
Zr139    Zr     0.988800000000     0.008800000000     0.139200000000     0          
O140     O      0.875600000000     0.029700000000     0.190500000000     0          
O141     O      0.093900000000     0.007200000000     0.208100000000     0          
C142     C      0.815800000000     0.022500000000     0.163200000000     0          
C143     C      0.157700000000     0.001300000000     0.193500000000     0          
C144     C      0.213100000000     0.002700000000     0.257200000000     0          
H145     H      0.195700000000     0.998000000000     0.309800000000     0          
O146     O      0.794400000000     0.020900000000     0.092900000000     0          
O147     O      0.186000000000     0.996300000000     0.127100000000     0          
C148     C      0.745900000000     0.026400000000     0.211600000000     0          
H149     H      0.705200000000     0.024100000000     0.184000000000     0          
O150     O      0.922900000000     0.090400000000     0.063800000000     0          
H151     H      0.891600000000     0.123900000000     0.088900000000     0          
Zr152    Zr     0.988800000000     0.491200000000     0.360800000000     0          
O153     O      0.875600000000     0.470300000000     0.309500000000     0          
O154     O      0.093900000000     0.492800000000     0.291900000000     0          
C155     C      0.815800000000     0.477500000000     0.336800000000     0          
C156     C      0.157700000000     0.498700000000     0.306500000000     0          
C157     C      0.213100000000     0.497300000000     0.242800000000     0          
H158     H      0.195700000000     0.502000000000     0.190200000000     0          
O159     O      0.794400000000     0.479100000000     0.407100000000     0          
O160     O      0.186000000000     0.503700000000     0.372900000000     0          
C161     C      0.745900000000     0.473600000000     0.288400000000     0          
H162     H      0.705200000000     0.475900000000     0.316000000000     0          
O163     O      0.922900000000     0.409600000000     0.436200000000     0          
H164     H      0.891600000000     0.376100000000     0.411100000000     0          
Zr165    Zr     0.639200000000     0.488800000000     0.991200000000     0          
O166     O      0.690500000000     0.375600000000     0.970300000000     0          
O167     O      0.708100000000     0.593900000000     0.992800000000     0          
C168     C      0.663200000000     0.315800000000     0.977500000000     0          
C169     C      0.693500000000     0.657700000000     0.998700000000     0          
C170     C      0.757200000000     0.713100000000     0.997300000000     0          
H171     H      0.809800000000     0.695700000000     0.002000000000     0          
O172     O      0.592900000000     0.294400000000     0.979100000000     0          
O173     O      0.627100000000     0.686000000000     0.003700000000     0          
C174     C      0.711600000000     0.245900000000     0.973600000000     0          
H175     H      0.684000000000     0.205200000000     0.975900000000     0          
O176     O      0.563800000000     0.422900000000     0.909600000000     0          
H177     H      0.588900000000     0.391600000000     0.876100000000     0          
H178     H      0.607000000000     0.607000000000     0.893000000000     0          
O179     O      0.574000000000     0.574000000000     0.926000000000     0          
Zr180    Zr     0.860800000000     0.011200000000     0.991200000000     0          
O181     O      0.809500000000     0.124400000000     0.970300000000     0          
O182     O      0.791900000000     0.906100000000     0.992800000000     0          
C183     C      0.836800000000     0.184200000000     0.977500000000     0          
C184     C      0.806500000000     0.842300000000     0.998700000000     0          
C185     C      0.742800000000     0.786900000000     0.997300000000     0          
H186     H      0.690200000000     0.804300000000     0.002000000000     0          
O187     O      0.907100000000     0.205600000000     0.979100000000     0          
O188     O      0.872900000000     0.814000000000     0.003700000000     0          
C189     C      0.788400000000     0.254100000000     0.973600000000     0          
H190     H      0.816000000000     0.294800000000     0.975900000000     0          
O191     O      0.936200000000     0.077100000000     0.909600000000     0          
H192     H      0.911100000000     0.108400000000     0.876100000000     0          
H193     H      0.893000000000     0.893000000000     0.893000000000     0          
O194     O      0.926000000000     0.926000000000     0.926000000000     0          
Zr195    Zr     0.639200000000     0.011200000000     0.508800000000     0          
O196     O      0.690500000000     0.124400000000     0.529700000000     0          
O197     O      0.708100000000     0.906100000000     0.507200000000     0          
C198     C      0.663200000000     0.184200000000     0.522500000000     0          
C199     C      0.693500000000     0.842300000000     0.501300000000     0          
C200     C      0.757200000000     0.786900000000     0.502700000000     0          
H201     H      0.809800000000     0.804300000000     0.498000000000     0          
O202     O      0.592900000000     0.205600000000     0.520900000000     0          
O203     O      0.627100000000     0.814000000000     0.496300000000     0          
C204     C      0.711600000000     0.254100000000     0.526400000000     0          
H205     H      0.684000000000     0.294800000000     0.524100000000     0          
O206     O      0.563800000000     0.077100000000     0.590400000000     0          
H207     H      0.588900000000     0.108400000000     0.623900000000     0          
H208     H      0.607000000000     0.893000000000     0.607000000000     0          
O209     O      0.574000000000     0.926000000000     0.574000000000     0          
Zr210    Zr     0.860800000000     0.488800000000     0.508800000000     0          
O211     O      0.809500000000     0.375600000000     0.529700000000     0          
O212     O      0.791900000000     0.593900000000     0.507200000000     0          
C213     C      0.836800000000     0.315800000000     0.522500000000     0          
C214     C      0.806500000000     0.657700000000     0.501300000000     0          
C215     C      0.742800000000     0.713100000000     0.502700000000     0          
H216     H      0.690200000000     0.695700000000     0.498000000000     0          
O217     O      0.907100000000     0.294400000000     0.520900000000     0          
O218     O      0.872900000000     0.686000000000     0.496300000000     0          
C219     C      0.788400000000     0.245900000000     0.526400000000     0          
H220     H      0.816000000000     0.205200000000     0.524100000000     0          
O221     O      0.936200000000     0.422900000000     0.590400000000     0          
H222     H      0.911100000000     0.391600000000     0.623900000000     0          
H223     H      0.893000000000     0.607000000000     0.607000000000     0          
O224     O      0.926000000000     0.574000000000     0.574000000000     0          
Zr225    Zr     0.991200000000     0.639200000000     0.488800000000     0          
O226     O      0.970300000000     0.690500000000     0.375600000000     0          
O227     O      0.992800000000     0.708100000000     0.593900000000     0          
C228     C      0.977500000000     0.663200000000     0.315800000000     0          
C229     C      0.998700000000     0.693500000000     0.657700000000     0          
C230     C      0.997300000000     0.757200000000     0.713100000000     0          
H231     H      0.002000000000     0.809800000000     0.695700000000     0          
O232     O      0.979100000000     0.592900000000     0.294400000000     0          
O233     O      0.003700000000     0.627100000000     0.686000000000     0          
C234     C      0.973600000000     0.711600000000     0.245900000000     0          
H235     H      0.975900000000     0.684000000000     0.205200000000     0          
O236     O      0.909600000000     0.563800000000     0.422900000000     0          
H237     H      0.876100000000     0.588900000000     0.391600000000     0          
Zr238    Zr     0.508800000000     0.860800000000     0.488800000000     0          
O239     O      0.529700000000     0.809500000000     0.375600000000     0          
O240     O      0.507200000000     0.791900000000     0.593900000000     0          
C241     C      0.522500000000     0.836800000000     0.315800000000     0          
C242     C      0.501300000000     0.806500000000     0.657700000000     0          
C243     C      0.502700000000     0.742800000000     0.713100000000     0          
H244     H      0.498000000000     0.690200000000     0.695700000000     0          
O245     O      0.520900000000     0.907100000000     0.294400000000     0          
O246     O      0.496300000000     0.872900000000     0.686000000000     0          
C247     C      0.526400000000     0.788400000000     0.245900000000     0          
H248     H      0.524100000000     0.816000000000     0.205200000000     0          
O249     O      0.590400000000     0.936200000000     0.422900000000     0          
H250     H      0.623900000000     0.911100000000     0.391600000000     0          
Zr251    Zr     0.991200000000     0.860800000000     0.011200000000     0          
O252     O      0.970300000000     0.809500000000     0.124400000000     0          
O253     O      0.992800000000     0.791900000000     0.906100000000     0          
C254     C      0.977500000000     0.836800000000     0.184200000000     0          
C255     C      0.998700000000     0.806500000000     0.842300000000     0          
C256     C      0.997300000000     0.742800000000     0.786900000000     0          
H257     H      0.002000000000     0.690200000000     0.804300000000     0          
O258     O      0.979100000000     0.907100000000     0.205600000000     0          
O259     O      0.003700000000     0.872900000000     0.814000000000     0          
C260     C      0.973600000000     0.788400000000     0.254100000000     0          
H261     H      0.975900000000     0.816000000000     0.294800000000     0          
O262     O      0.909600000000     0.936200000000     0.077100000000     0          
H263     H      0.876100000000     0.911100000000     0.108400000000     0          
Zr264    Zr     0.508800000000     0.639200000000     0.011200000000     0          
O265     O      0.529700000000     0.690500000000     0.124400000000     0          
O266     O      0.507200000000     0.708100000000     0.906100000000     0          
C267     C      0.522500000000     0.663200000000     0.184200000000     0          
C268     C      0.501300000000     0.693500000000     0.842300000000     0          
C269     C      0.502700000000     0.757200000000     0.786900000000     0          
H270     H      0.498000000000     0.809800000000     0.804300000000     0          
O271     O      0.520900000000     0.592900000000     0.205600000000     0          
O272     O      0.496300000000     0.627100000000     0.814000000000     0          
C273     C      0.526400000000     0.711600000000     0.254100000000     0          
H274     H      0.524100000000     0.684000000000     0.294800000000     0          
O275     O      0.590400000000     0.563800000000     0.077100000000     0          
H276     H      0.623900000000     0.588900000000     0.108400000000     0          
Zr277    Zr     0.488800000000     0.991200000000     0.639200000000     0          
O278     O      0.375600000000     0.970300000000     0.690500000000     0          
O279     O      0.593900000000     0.992800000000     0.708100000000     0          
C280     C      0.315800000000     0.977500000000     0.663200000000     0          
C281     C      0.657700000000     0.998700000000     0.693500000000     0          
C282     C      0.713100000000     0.997300000000     0.757200000000     0          
H283     H      0.695700000000     0.002000000000     0.809800000000     0          
O284     O      0.294400000000     0.979100000000     0.592900000000     0          
O285     O      0.686000000000     0.003700000000     0.627100000000     0          
C286     C      0.245900000000     0.973600000000     0.711600000000     0          
H287     H      0.205200000000     0.975900000000     0.684000000000     0          
O288     O      0.422900000000     0.909600000000     0.563800000000     0          
H289     H      0.391600000000     0.876100000000     0.588900000000     0          
Zr290    Zr     0.488800000000     0.508800000000     0.860800000000     0          
O291     O      0.375600000000     0.529700000000     0.809500000000     0          
O292     O      0.593900000000     0.507200000000     0.791900000000     0          
C293     C      0.315800000000     0.522500000000     0.836800000000     0          
C294     C      0.657700000000     0.501300000000     0.806500000000     0          
C295     C      0.713100000000     0.502700000000     0.742800000000     0          
H296     H      0.695700000000     0.498000000000     0.690200000000     0          
O297     O      0.294400000000     0.520900000000     0.907100000000     0          
O298     O      0.686000000000     0.496300000000     0.872900000000     0          
C299     C      0.245900000000     0.526400000000     0.788400000000     0          
H300     H      0.205200000000     0.524100000000     0.816000000000     0          
O301     O      0.422900000000     0.590400000000     0.936200000000     0          
H302     H      0.391600000000     0.623900000000     0.911100000000     0          
Zr303    Zr     0.011200000000     0.991200000000     0.860800000000     0          
O304     O      0.124400000000     0.970300000000     0.809500000000     0          
O305     O      0.906100000000     0.992800000000     0.791900000000     0          
C306     C      0.184200000000     0.977500000000     0.836800000000     0          
C307     C      0.842300000000     0.998700000000     0.806500000000     0          
C308     C      0.786900000000     0.997300000000     0.742800000000     0          
H309     H      0.804300000000     0.002000000000     0.690200000000     0          
O310     O      0.205600000000     0.979100000000     0.907100000000     0          
O311     O      0.814000000000     0.003700000000     0.872900000000     0          
C312     C      0.254100000000     0.973600000000     0.788400000000     0          
H313     H      0.294800000000     0.975900000000     0.816000000000     0          
O314     O      0.077100000000     0.909600000000     0.936200000000     0          
H315     H      0.108400000000     0.876100000000     0.911100000000     0          
Zr316    Zr     0.011200000000     0.508800000000     0.639200000000     0          
O317     O      0.124400000000     0.529700000000     0.690500000000     0          
O318     O      0.906100000000     0.507200000000     0.708100000000     0          
C319     C      0.184200000000     0.522500000000     0.663200000000     0          
C320     C      0.842300000000     0.501300000000     0.693500000000     0          
C321     C      0.786900000000     0.502700000000     0.757200000000     0          
H322     H      0.804300000000     0.498000000000     0.809800000000     0          
O323     O      0.205600000000     0.520900000000     0.592900000000     0          
O324     O      0.814000000000     0.496300000000     0.627100000000     0          
C325     C      0.254100000000     0.526400000000     0.711600000000     0          
H326     H      0.294800000000     0.524100000000     0.684000000000     0          
O327     O      0.077100000000     0.590400000000     0.563800000000     0          
H328     H      0.108400000000     0.623900000000     0.588900000000     0          


