data_ERAMUH

_audit_creation_method RASPA-1.0
_audit_creation_date 2020-11-2
_audit_author_name 'Rocio Bueno-Perez'

_cell_length_a    23.679
_cell_length_b    23.679
_cell_length_c    16.816
_cell_angle_alpha 90
_cell_angle_beta  90
_cell_angle_gamma 90
_cell_volume      9428.65

_symmetry_cell_setting          triclinic
_symmetry_space_group_name_Hall 'P 1'
_symmetry_space_group_name_H-M  'P 1'
_symmetry_Int_Tables_number     1

_symmetry_equiv_pos_as_xyz 'x,y,z'

loop_
_atom_site_label
_atom_site_type_symbol
_atom_site_fract_x
_atom_site_fract_y
_atom_site_fract_z
_atom_site_charge
O1       O      0.849020000000     0.443240000000     0.579140000000     0          
O2       O      0.916130000000     0.397300000000     0.649200000000     0          
C3       C      0.865880000000     0.407270000000     0.629500000000     0          
C4       C      0.821520000000     0.370370000000     0.667300000000     0          
C5       C      0.767110000000     0.371700000000     0.640200000000     0          
H6       H      0.757200000000     0.397000000000     0.598600000000     0          
C7       C      0.726300000000     0.336900000000     0.672600000000     0          
C8       C      0.741800000000     0.299900000000     0.732600000000     0          
C9       C      0.795800000000     0.299100000000     0.760700000000     0          
H10      H      0.805700000000     0.275100000000     0.803800000000     0          
C11      C      0.836600000000     0.333900000000     0.725300000000     0          
H12      H      0.874800000000     0.331800000000     0.742100000000     0          
C13      C      0.667100000000     0.336100000000     0.636800000000     0          
H14      H      0.664500000000     0.364700000000     0.594800000000     0          
H15      H      0.639300000000     0.344400000000     0.678400000000     0          
H16      H      0.659500000000     0.298700000000     0.614200000000     0          
O17      O      0.150980000000     0.556760000000     0.579140000000     0          
O18      O      0.083870000000     0.602700000000     0.649200000000     0          
C19      C      0.134120000000     0.592730000000     0.629500000000     0          
C20      C      0.178480000000     0.629630000000     0.667300000000     0          
C21      C      0.232890000000     0.628300000000     0.640200000000     0          
H22      H      0.242800000000     0.603000000000     0.598600000000     0          
C23      C      0.273700000000     0.663100000000     0.672600000000     0          
C24      C      0.258200000000     0.700100000000     0.732600000000     0          
C25      C      0.204200000000     0.700900000000     0.760700000000     0          
H26      H      0.194300000000     0.724900000000     0.803800000000     0          
C27      C      0.163400000000     0.666100000000     0.725300000000     0          
H28      H      0.125200000000     0.668200000000     0.742100000000     0          
C29      C      0.332900000000     0.663900000000     0.636800000000     0          
H30      H      0.335500000000     0.635300000000     0.594800000000     0          
H31      H      0.360700000000     0.655600000000     0.678400000000     0          
H32      H      0.340500000000     0.701300000000     0.614200000000     0          
O33      O      0.556760000000     0.849020000000     0.079140000000     0          
O34      O      0.602700000000     0.916130000000     0.149200000000     0          
C35      C      0.592730000000     0.865880000000     0.129500000000     0          
C36      C      0.629630000000     0.821520000000     0.167300000000     0          
C37      C      0.628300000000     0.767110000000     0.140200000000     0          
H38      H      0.603000000000     0.757200000000     0.098600000000     0          
C39      C      0.663100000000     0.726300000000     0.172600000000     0          
C40      C      0.700100000000     0.741800000000     0.232600000000     0          
C41      C      0.700900000000     0.795800000000     0.260700000000     0          
H42      H      0.724900000000     0.805700000000     0.303800000000     0          
C43      C      0.666100000000     0.836600000000     0.225300000000     0          
H44      H      0.668200000000     0.874800000000     0.242100000000     0          
C45      C      0.663900000000     0.667100000000     0.136800000000     0          
H46      H      0.635300000000     0.664500000000     0.094800000000     0          
H47      H      0.655600000000     0.639300000000     0.178400000000     0          
H48      H      0.701300000000     0.659500000000     0.114200000000     0          
O49      O      0.443240000000     0.150980000000     0.079140000000     0          
O50      O      0.397300000000     0.083870000000     0.149200000000     0          
C51      C      0.407270000000     0.134120000000     0.129500000000     0          
C52      C      0.370370000000     0.178480000000     0.167300000000     0          
C53      C      0.371700000000     0.232890000000     0.140200000000     0          
H54      H      0.397000000000     0.242800000000     0.098600000000     0          
C55      C      0.336900000000     0.273700000000     0.172600000000     0          
C56      C      0.299900000000     0.258200000000     0.232600000000     0          
C57      C      0.299100000000     0.204200000000     0.260700000000     0          
H58      H      0.275100000000     0.194300000000     0.303800000000     0          
C59      C      0.333900000000     0.163400000000     0.225300000000     0          
H60      H      0.331800000000     0.125200000000     0.242100000000     0          
C61      C      0.336100000000     0.332900000000     0.136800000000     0          
H62      H      0.364700000000     0.335500000000     0.094800000000     0          
H63      H      0.344400000000     0.360700000000     0.178400000000     0          
H64      H      0.298700000000     0.340500000000     0.114200000000     0          
O65      O      0.150980000000     0.443240000000     0.420860000000     0          
O66      O      0.083870000000     0.397300000000     0.350800000000     0          
C67      C      0.134120000000     0.407270000000     0.370500000000     0          
C68      C      0.178480000000     0.370370000000     0.332700000000     0          
C69      C      0.232890000000     0.371700000000     0.359800000000     0          
H70      H      0.242800000000     0.397000000000     0.401400000000     0          
C71      C      0.273700000000     0.336900000000     0.327400000000     0          
C72      C      0.258200000000     0.299900000000     0.267400000000     0          
C73      C      0.204200000000     0.299100000000     0.239300000000     0          
H74      H      0.194300000000     0.275100000000     0.196200000000     0          
C75      C      0.163400000000     0.333900000000     0.274700000000     0          
H76      H      0.125200000000     0.331800000000     0.257900000000     0          
C77      C      0.332900000000     0.336100000000     0.363200000000     0          
H78      H      0.335500000000     0.364700000000     0.405200000000     0          
H79      H      0.360700000000     0.344400000000     0.321600000000     0          
H80      H      0.340500000000     0.298700000000     0.385800000000     0          
O81      O      0.849020000000     0.556760000000     0.420860000000     0          
O82      O      0.916130000000     0.602700000000     0.350800000000     0          
C83      C      0.865880000000     0.592730000000     0.370500000000     0          
C84      C      0.821520000000     0.629630000000     0.332700000000     0          
C85      C      0.767110000000     0.628300000000     0.359800000000     0          
H86      H      0.757200000000     0.603000000000     0.401400000000     0          
C87      C      0.726300000000     0.663100000000     0.327400000000     0          
C88      C      0.741800000000     0.700100000000     0.267400000000     0          
C89      C      0.795800000000     0.700900000000     0.239300000000     0          
H90      H      0.805700000000     0.724900000000     0.196200000000     0          
C91      C      0.836600000000     0.666100000000     0.274700000000     0          
H92      H      0.874800000000     0.668200000000     0.257900000000     0          
C93      C      0.667100000000     0.663900000000     0.363200000000     0          
H94      H      0.664500000000     0.635300000000     0.405200000000     0          
H95      H      0.639300000000     0.655600000000     0.321600000000     0          
H96      H      0.659500000000     0.701300000000     0.385800000000     0          
O97      O      0.443240000000     0.849020000000     0.920860000000     0          
O98      O      0.397300000000     0.916130000000     0.850800000000     0          
C99      C      0.407270000000     0.865880000000     0.870500000000     0          
C100     C      0.370370000000     0.821520000000     0.832700000000     0          
C101     C      0.371700000000     0.767110000000     0.859800000000     0          
H102     H      0.397000000000     0.757200000000     0.901400000000     0          
C103     C      0.336900000000     0.726300000000     0.827400000000     0          
C104     C      0.299900000000     0.741800000000     0.767400000000     0          
C105     C      0.299100000000     0.795800000000     0.739300000000     0          
H106     H      0.275100000000     0.805700000000     0.696200000000     0          
C107     C      0.333900000000     0.836600000000     0.774700000000     0          
H108     H      0.331800000000     0.874800000000     0.757900000000     0          
C109     C      0.336100000000     0.667100000000     0.863200000000     0          
H110     H      0.364700000000     0.664500000000     0.905200000000     0          
H111     H      0.344400000000     0.639300000000     0.821600000000     0          
H112     H      0.298700000000     0.659500000000     0.885800000000     0          
O113     O      0.556760000000     0.150980000000     0.920860000000     0          
O114     O      0.602700000000     0.083870000000     0.850800000000     0          
C115     C      0.592730000000     0.134120000000     0.870500000000     0          
C116     C      0.629630000000     0.178480000000     0.832700000000     0          
C117     C      0.628300000000     0.232890000000     0.859800000000     0          
H118     H      0.603000000000     0.242800000000     0.901400000000     0          
C119     C      0.663100000000     0.273700000000     0.827400000000     0          
C120     C      0.700100000000     0.258200000000     0.767400000000     0          
C121     C      0.700900000000     0.204200000000     0.739300000000     0          
H122     H      0.724900000000     0.194300000000     0.696200000000     0          
C123     C      0.666100000000     0.163400000000     0.774700000000     0          
H124     H      0.668200000000     0.125200000000     0.757900000000     0          
C125     C      0.663900000000     0.332900000000     0.863200000000     0          
H126     H      0.635300000000     0.335500000000     0.905200000000     0          
H127     H      0.655600000000     0.360700000000     0.821600000000     0          
H128     H      0.701300000000     0.340500000000     0.885800000000     0          
O129     O      0.150980000000     0.556760000000     0.420860000000     0          
O130     O      0.083870000000     0.602700000000     0.350800000000     0          
C131     C      0.134120000000     0.592730000000     0.370500000000     0          
C132     C      0.178480000000     0.629630000000     0.332700000000     0          
C133     C      0.232890000000     0.628300000000     0.359800000000     0          
H134     H      0.242800000000     0.603000000000     0.401400000000     0          
C135     C      0.273700000000     0.663100000000     0.327400000000     0          
C136     C      0.258200000000     0.700100000000     0.267400000000     0          
C137     C      0.204200000000     0.700900000000     0.239300000000     0          
H138     H      0.194300000000     0.724900000000     0.196200000000     0          
C139     C      0.163400000000     0.666100000000     0.274700000000     0          
H140     H      0.125200000000     0.668200000000     0.257900000000     0          
C141     C      0.332900000000     0.663900000000     0.363200000000     0          
H142     H      0.335500000000     0.635300000000     0.405200000000     0          
H143     H      0.360700000000     0.655600000000     0.321600000000     0          
H144     H      0.340500000000     0.701300000000     0.385800000000     0          
O145     O      0.849020000000     0.443240000000     0.420860000000     0          
O146     O      0.916130000000     0.397300000000     0.350800000000     0          
C147     C      0.865880000000     0.407270000000     0.370500000000     0          
C148     C      0.821520000000     0.370370000000     0.332700000000     0          
C149     C      0.767110000000     0.371700000000     0.359800000000     0          
H150     H      0.757200000000     0.397000000000     0.401400000000     0          
C151     C      0.726300000000     0.336900000000     0.327400000000     0          
C152     C      0.741800000000     0.299900000000     0.267400000000     0          
C153     C      0.795800000000     0.299100000000     0.239300000000     0          
H154     H      0.805700000000     0.275100000000     0.196200000000     0          
C155     C      0.836600000000     0.333900000000     0.274700000000     0          
H156     H      0.874800000000     0.331800000000     0.257900000000     0          
C157     C      0.667100000000     0.336100000000     0.363200000000     0          
H158     H      0.664500000000     0.364700000000     0.405200000000     0          
H159     H      0.639300000000     0.344400000000     0.321600000000     0          
H160     H      0.659500000000     0.298700000000     0.385800000000     0          
O161     O      0.443240000000     0.150980000000     0.920860000000     0          
O162     O      0.397300000000     0.083870000000     0.850800000000     0          
C163     C      0.407270000000     0.134120000000     0.870500000000     0          
C164     C      0.370370000000     0.178480000000     0.832700000000     0          
C165     C      0.371700000000     0.232890000000     0.859800000000     0          
H166     H      0.397000000000     0.242800000000     0.901400000000     0          
C167     C      0.336900000000     0.273700000000     0.827400000000     0          
C168     C      0.299900000000     0.258200000000     0.767400000000     0          
C169     C      0.299100000000     0.204200000000     0.739300000000     0          
H170     H      0.275100000000     0.194300000000     0.696200000000     0          
C171     C      0.333900000000     0.163400000000     0.774700000000     0          
H172     H      0.331800000000     0.125200000000     0.757900000000     0          
C173     C      0.336100000000     0.332900000000     0.863200000000     0          
H174     H      0.364700000000     0.335500000000     0.905200000000     0          
H175     H      0.344400000000     0.360700000000     0.821600000000     0          
H176     H      0.298700000000     0.340500000000     0.885800000000     0          
O177     O      0.556760000000     0.849020000000     0.920860000000     0          
O178     O      0.602700000000     0.916130000000     0.850800000000     0          
C179     C      0.592730000000     0.865880000000     0.870500000000     0          
C180     C      0.629630000000     0.821520000000     0.832700000000     0          
C181     C      0.628300000000     0.767110000000     0.859800000000     0          
H182     H      0.603000000000     0.757200000000     0.901400000000     0          
C183     C      0.663100000000     0.726300000000     0.827400000000     0          
C184     C      0.700100000000     0.741800000000     0.767400000000     0          
C185     C      0.700900000000     0.795800000000     0.739300000000     0          
H186     H      0.724900000000     0.805700000000     0.696200000000     0          
C187     C      0.666100000000     0.836600000000     0.774700000000     0          
H188     H      0.668200000000     0.874800000000     0.757900000000     0          
C189     C      0.663900000000     0.667100000000     0.863200000000     0          
H190     H      0.635300000000     0.664500000000     0.905200000000     0          
H191     H      0.655600000000     0.639300000000     0.821600000000     0          
H192     H      0.701300000000     0.659500000000     0.885800000000     0          
O193     O      0.849020000000     0.556760000000     0.579140000000     0          
O194     O      0.916130000000     0.602700000000     0.649200000000     0          
C195     C      0.865880000000     0.592730000000     0.629500000000     0          
C196     C      0.821520000000     0.629630000000     0.667300000000     0          
C197     C      0.767110000000     0.628300000000     0.640200000000     0          
H198     H      0.757200000000     0.603000000000     0.598600000000     0          
C199     C      0.726300000000     0.663100000000     0.672600000000     0          
C200     C      0.741800000000     0.700100000000     0.732600000000     0          
C201     C      0.795800000000     0.700900000000     0.760700000000     0          
H202     H      0.805700000000     0.724900000000     0.803800000000     0          
C203     C      0.836600000000     0.666100000000     0.725300000000     0          
H204     H      0.874800000000     0.668200000000     0.742100000000     0          
C205     C      0.667100000000     0.663900000000     0.636800000000     0          
H206     H      0.664500000000     0.635300000000     0.594800000000     0          
H207     H      0.639300000000     0.655600000000     0.678400000000     0          
H208     H      0.659500000000     0.701300000000     0.614200000000     0          
O209     O      0.150980000000     0.443240000000     0.579140000000     0          
O210     O      0.083870000000     0.397300000000     0.649200000000     0          
C211     C      0.134120000000     0.407270000000     0.629500000000     0          
C212     C      0.178480000000     0.370370000000     0.667300000000     0          
C213     C      0.232890000000     0.371700000000     0.640200000000     0          
H214     H      0.242800000000     0.397000000000     0.598600000000     0          
C215     C      0.273700000000     0.336900000000     0.672600000000     0          
C216     C      0.258200000000     0.299900000000     0.732600000000     0          
C217     C      0.204200000000     0.299100000000     0.760700000000     0          
H218     H      0.194300000000     0.275100000000     0.803800000000     0          
C219     C      0.163400000000     0.333900000000     0.725300000000     0          
H220     H      0.125200000000     0.331800000000     0.742100000000     0          
C221     C      0.332900000000     0.336100000000     0.636800000000     0          
H222     H      0.335500000000     0.364700000000     0.594800000000     0          
H223     H      0.360700000000     0.344400000000     0.678400000000     0          
H224     H      0.340500000000     0.298700000000     0.614200000000     0          
O225     O      0.556760000000     0.150980000000     0.079140000000     0          
O226     O      0.602700000000     0.083870000000     0.149200000000     0          
C227     C      0.592730000000     0.134120000000     0.129500000000     0          
C228     C      0.629630000000     0.178480000000     0.167300000000     0          
C229     C      0.628300000000     0.232890000000     0.140200000000     0          
H230     H      0.603000000000     0.242800000000     0.098600000000     0          
C231     C      0.663100000000     0.273700000000     0.172600000000     0          
C232     C      0.700100000000     0.258200000000     0.232600000000     0          
C233     C      0.700900000000     0.204200000000     0.260700000000     0          
H234     H      0.724900000000     0.194300000000     0.303800000000     0          
C235     C      0.666100000000     0.163400000000     0.225300000000     0          
H236     H      0.668200000000     0.125200000000     0.242100000000     0          
C237     C      0.663900000000     0.332900000000     0.136800000000     0          
H238     H      0.635300000000     0.335500000000     0.094800000000     0          
H239     H      0.655600000000     0.360700000000     0.178400000000     0          
H240     H      0.701300000000     0.340500000000     0.114200000000     0          
O241     O      0.443240000000     0.849020000000     0.079140000000     0          
O242     O      0.397300000000     0.916130000000     0.149200000000     0          
C243     C      0.407270000000     0.865880000000     0.129500000000     0          
C244     C      0.370370000000     0.821520000000     0.167300000000     0          
C245     C      0.371700000000     0.767110000000     0.140200000000     0          
H246     H      0.397000000000     0.757200000000     0.098600000000     0          
C247     C      0.336900000000     0.726300000000     0.172600000000     0          
C248     C      0.299900000000     0.741800000000     0.232600000000     0          
C249     C      0.299100000000     0.795800000000     0.260700000000     0          
H250     H      0.275100000000     0.805700000000     0.303800000000     0          
C251     C      0.333900000000     0.836600000000     0.225300000000     0          
H252     H      0.331800000000     0.874800000000     0.242100000000     0          
C253     C      0.336100000000     0.667100000000     0.136800000000     0          
H254     H      0.364700000000     0.664500000000     0.094800000000     0          
H255     H      0.344400000000     0.639300000000     0.178400000000     0          
H256     H      0.298700000000     0.659500000000     0.114200000000     0          
Zr257    Zr     0.000000000000     0.426510000000     0.604840000000     0          
C258     C      0.000000000000     0.520200000000     0.236600000000     0          
O259     O      0.000000000000     0.563200000000     0.283000000000     0          
O260     O      0.000000000000     0.469200000000     0.262200000000     0          
Zr261    Zr     0.000000000000     0.573490000000     0.604840000000     0          
Zr262    Zr     0.573490000000     0.000000000000     0.104840000000     0          
C263     C      0.479800000000     0.000000000000     0.736600000000     0          
O264     O      0.436800000000     0.000000000000     0.783000000000     0          
O265     O      0.530800000000     0.000000000000     0.762200000000     0          
O266     O      0.449370000000     0.000000000000     0.240600000000     0          
Zr267    Zr     0.426510000000     0.000000000000     0.104840000000     0          
O268     O      0.550630000000     0.000000000000     0.240600000000     0          
Zr269    Zr     0.000000000000     0.426510000000     0.395160000000     0          
Zr270    Zr     0.000000000000     0.573490000000     0.395160000000     0          
C271     C      0.000000000000     0.509900000000     0.144600000000     0          
C272     C      0.000000000000     0.562200000000     0.106900000000     0          
H273     H      0.000000000000     0.597100000000     0.135900000000     0          
C274     C      0.000000000000     0.565100000000     0.024400000000     0          
C275     C      0.000000000000     0.515900000000     0.979500000000     0          
C276     C      0.000000000000     0.463600000000     0.017100000000     0          
C277     C      0.000000000000     0.460600000000     0.099700000000     0          
H278     H      0.000000000000     0.425300000000     0.127800000000     0          
C279     C      0.000000000000     0.518800000000     0.896900000000     0          
H280     H      0.000000000000     0.554100000000     0.868800000000     0          
C281     C      0.000000000000     0.469600000000     0.852000000000     0          
C282     C      0.000000000000     0.417300000000     0.889600000000     0          
H283     H      0.000000000000     0.382300000000     0.860700000000     0          
C284     C      0.000000000000     0.414300000000     0.972200000000     0          
C285     C      0.000000000000     0.479800000000     0.763400000000     0          
O286     O      0.000000000000     0.436800000000     0.717000000000     0          
O287     O      0.000000000000     0.530800000000     0.737800000000     0          
Zr288    Zr     0.426510000000     0.000000000000     0.895160000000     0          
C289     C      0.490100000000     0.000000000000     0.644600000000     0          
C290     C      0.437800000000     0.000000000000     0.606900000000     0          
H291     H      0.402900000000     0.000000000000     0.635900000000     0          
C292     C      0.434900000000     0.000000000000     0.524400000000     0          
C293     C      0.484100000000     0.000000000000     0.479500000000     0          
C294     C      0.536400000000     0.000000000000     0.517100000000     0          
C295     C      0.539400000000     0.000000000000     0.599700000000     0          
H296     H      0.574700000000     0.000000000000     0.627800000000     0          
C297     C      0.481200000000     0.000000000000     0.396900000000     0          
H298     H      0.445900000000     0.000000000000     0.368800000000     0          
C299     C      0.530400000000     0.000000000000     0.352000000000     0          
C300     C      0.582700000000     0.000000000000     0.389600000000     0          
H301     H      0.617700000000     0.000000000000     0.360700000000     0          
C302     C      0.585700000000     0.000000000000     0.472200000000     0          
Zr303    Zr     0.573490000000     0.000000000000     0.895160000000     0          
Zr304    Zr     0.896260000000     0.500000000000     0.500000000000     0          
Zr305    Zr     0.103740000000     0.500000000000     0.500000000000     0          
Zr306    Zr     0.500000000000     0.896260000000     0.000000000000     0          
Zr307    Zr     0.500000000000     0.103740000000     0.000000000000     0          
O308     O      0.949650000000     0.425400000000     0.500000000000     0          
O309     O      0.050350000000     0.574600000000     0.500000000000     0          
O310     O      0.574600000000     0.949650000000     0.000000000000     0          
O311     O      0.425400000000     0.050350000000     0.000000000000     0          
O312     O      0.050350000000     0.425400000000     0.500000000000     0          
O313     O      0.949650000000     0.574600000000     0.500000000000     0          
O314     O      0.425400000000     0.949650000000     0.000000000000     0          
O315     O      0.574600000000     0.050350000000     0.000000000000     0          
O316     O      0.948760000000     0.500000000000     0.601900000000     0          
O317     O      0.051240000000     0.500000000000     0.601900000000     0          
O318     O      0.500000000000     0.948760000000     0.101900000000     0          
O319     O      0.500000000000     0.051240000000     0.101900000000     0          
O320     O      0.051240000000     0.500000000000     0.398100000000     0          
O321     O      0.948760000000     0.500000000000     0.398100000000     0          
O322     O      0.500000000000     0.948760000000     0.898100000000     0          
O323     O      0.500000000000     0.051240000000     0.898100000000     0          
C324     C      0.500000000000     0.000000000000     0.266800000000     0          
H325     H      0.000000000000     0.600400000000     0.000000000000     0          
H326     H      0.000000000000     0.379000000000     0.000000000000     0          
H327     H      0.399600000000     0.000000000000     0.500000000000     0          
H328     H      0.621000000000     0.000000000000     0.500000000000     0          


