data_FINMUN

_audit_creation_method RASPA-1.0
_audit_creation_date 2020-11-2
_audit_author_name 'Rocio Bueno-Perez'

_cell_length_a    25.1305
_cell_length_b    26.1041
_cell_length_c    18.9051
_cell_angle_alpha 90
_cell_angle_beta  90
_cell_angle_gamma 90
_cell_volume      12401.9

_symmetry_cell_setting          triclinic
_symmetry_space_group_name_Hall 'P 1'
_symmetry_space_group_name_H-M  'P 1'
_symmetry_Int_Tables_number     1

_symmetry_equiv_pos_as_xyz 'x,y,z'

loop_
_atom_site_label
_atom_site_type_symbol
_atom_site_fract_x
_atom_site_fract_y
_atom_site_fract_z
_atom_site_charge
Zr1      Zr     0.726160000000     0.817640000000     0.662470000000     0          
O2       O      0.597400000000     0.699300000000     0.746800000000     0          
O3       O      0.640400000000     0.654400000000     0.664600000000     0          
O4       O      0.631400000000     0.799500000000     0.878100000000     0          
O5       O      0.705200000000     0.817400000000     0.770200000000     0          
O6       O      0.706400000000     0.846300000000     0.908700000000     0          
C7       C      0.601400000000     0.667700000000     0.694600000000     0          
C8       C      0.548700000000     0.605600000000     0.623600000000     0          
H9       H      0.581600000000     0.593100000000     0.605800000000     0          
C10      C      0.547400000000     0.645300000000     0.674400000000     0          
C11      C      0.658800000000     0.835900000000     0.916200000000     0          
C12      C      0.541300000000     0.542400000000     0.491000000000     0          
Zr13     Zr     0.226160000000     0.317640000000     0.162470000000     0          
O14      O      0.097400000000     0.199300000000     0.246800000000     0          
O15      O      0.140400000000     0.154400000000     0.164600000000     0          
O16      O      0.131400000000     0.299500000000     0.378100000000     0          
O17      O      0.205200000000     0.317400000000     0.270200000000     0          
O18      O      0.206400000000     0.346300000000     0.408700000000     0          
C19      C      0.101400000000     0.167700000000     0.194600000000     0          
C20      C      0.048700000000     0.105600000000     0.123600000000     0          
H21      H      0.081600000000     0.093100000000     0.105800000000     0          
C22      C      0.047400000000     0.145300000000     0.174400000000     0          
C23      C      0.158800000000     0.335900000000     0.416200000000     0          
C24      C      0.041300000000     0.042400000000     0.991000000000     0          
Zr25     Zr     0.273840000000     0.682360000000     0.662470000000     0          
O26      O      0.402600000000     0.800700000000     0.746800000000     0          
O27      O      0.359600000000     0.845600000000     0.664600000000     0          
O28      O      0.368600000000     0.700500000000     0.878100000000     0          
O29      O      0.294800000000     0.682600000000     0.770200000000     0          
O30      O      0.293600000000     0.653700000000     0.908700000000     0          
C31      C      0.398600000000     0.832300000000     0.694600000000     0          
C32      C      0.451300000000     0.894400000000     0.623600000000     0          
H33      H      0.418400000000     0.906900000000     0.605800000000     0          
C34      C      0.452600000000     0.854700000000     0.674400000000     0          
C35      C      0.341200000000     0.664100000000     0.916200000000     0          
C36      C      0.457500000000     0.991900000000     0.556000000000     0          
Zr37     Zr     0.773840000000     0.182360000000     0.162470000000     0          
O38      O      0.902600000000     0.300700000000     0.246800000000     0          
O39      O      0.859600000000     0.345600000000     0.164600000000     0          
O40      O      0.868600000000     0.200500000000     0.378100000000     0          
O41      O      0.794800000000     0.182600000000     0.270200000000     0          
O42      O      0.793600000000     0.153700000000     0.408700000000     0          
C43      C      0.898600000000     0.332300000000     0.194600000000     0          
C44      C      0.951300000000     0.394400000000     0.123600000000     0          
H45      H      0.918400000000     0.406900000000     0.105800000000     0          
C46      C      0.952600000000     0.354700000000     0.174400000000     0          
C47      C      0.841200000000     0.164100000000     0.416200000000     0          
C48      C      0.957500000000     0.491900000000     0.056000000000     0          
Zr49     Zr     0.273840000000     0.317640000000     0.337530000000     0          
O50      O      0.402600000000     0.199300000000     0.253200000000     0          
O51      O      0.359600000000     0.154400000000     0.335400000000     0          
O52      O      0.368600000000     0.299500000000     0.121900000000     0          
O53      O      0.294800000000     0.317400000000     0.229800000000     0          
O54      O      0.293600000000     0.346300000000     0.091300000000     0          
C55      C      0.398600000000     0.167700000000     0.305400000000     0          
C56      C      0.451300000000     0.105600000000     0.376400000000     0          
H57      H      0.418400000000     0.093100000000     0.394200000000     0          
C58      C      0.452600000000     0.145300000000     0.325600000000     0          
C59      C      0.341200000000     0.335900000000     0.083800000000     0          
C60      C      0.458700000000     0.042400000000     0.509000000000     0          
Zr61     Zr     0.773840000000     0.817640000000     0.837530000000     0          
O62      O      0.902600000000     0.699300000000     0.753200000000     0          
O63      O      0.859600000000     0.654400000000     0.835400000000     0          
O64      O      0.868600000000     0.799500000000     0.621900000000     0          
O65      O      0.794800000000     0.817400000000     0.729800000000     0          
O66      O      0.793600000000     0.846300000000     0.591300000000     0          
C67      C      0.898600000000     0.667700000000     0.805400000000     0          
C68      C      0.951300000000     0.605600000000     0.876400000000     0          
H69      H      0.918400000000     0.593100000000     0.894200000000     0          
C70      C      0.952600000000     0.645300000000     0.825600000000     0          
C71      C      0.841200000000     0.835900000000     0.583800000000     0          
C72      C      0.958700000000     0.542400000000     0.009000000000     0          
Zr73     Zr     0.726160000000     0.182360000000     0.337530000000     0          
O74      O      0.597400000000     0.300700000000     0.253200000000     0          
O75      O      0.640400000000     0.345600000000     0.335400000000     0          
O76      O      0.631400000000     0.200500000000     0.121900000000     0          
O77      O      0.705200000000     0.182600000000     0.229800000000     0          
O78      O      0.706400000000     0.153700000000     0.091300000000     0          
C79      C      0.601400000000     0.332300000000     0.305400000000     0          
C80      C      0.548700000000     0.394400000000     0.376400000000     0          
H81      H      0.581600000000     0.406900000000     0.394200000000     0          
C82      C      0.547400000000     0.354700000000     0.325600000000     0          
C83      C      0.658800000000     0.164100000000     0.083800000000     0          
C84      C      0.542500000000     0.491900000000     0.444000000000     0          
Zr85     Zr     0.226160000000     0.682360000000     0.837530000000     0          
O86      O      0.097400000000     0.800700000000     0.753200000000     0          
O87      O      0.140400000000     0.845600000000     0.835400000000     0          
O88      O      0.131400000000     0.700500000000     0.621900000000     0          
O89      O      0.205200000000     0.682600000000     0.729800000000     0          
O90      O      0.206400000000     0.653700000000     0.591300000000     0          
C91      C      0.101400000000     0.832300000000     0.805400000000     0          
C92      C      0.048700000000     0.894400000000     0.876400000000     0          
H93      H      0.081600000000     0.906900000000     0.894200000000     0          
C94      C      0.047400000000     0.854700000000     0.825600000000     0          
C95      C      0.158800000000     0.664100000000     0.583800000000     0          
C96      C      0.042500000000     0.991900000000     0.944000000000     0          
Zr97     Zr     0.273840000000     0.182360000000     0.337530000000     0          
O98      O      0.402600000000     0.300700000000     0.253200000000     0          
O99      O      0.359600000000     0.345600000000     0.335400000000     0          
O100     O      0.368600000000     0.200500000000     0.121900000000     0          
O101     O      0.294800000000     0.182600000000     0.229800000000     0          
O102     O      0.293600000000     0.153700000000     0.091300000000     0          
C103     C      0.398600000000     0.332300000000     0.305400000000     0          
C104     C      0.451300000000     0.394400000000     0.376400000000     0          
H105     H      0.418400000000     0.406900000000     0.394200000000     0          
C106     C      0.452600000000     0.354700000000     0.325600000000     0          
C107     C      0.341200000000     0.164100000000     0.083800000000     0          
C108     C      0.458700000000     0.457600000000     0.509000000000     0          
Zr109    Zr     0.773840000000     0.682360000000     0.837530000000     0          
O110     O      0.902600000000     0.800700000000     0.753200000000     0          
O111     O      0.859600000000     0.845600000000     0.835400000000     0          
O112     O      0.868600000000     0.700500000000     0.621900000000     0          
O113     O      0.794800000000     0.682600000000     0.729800000000     0          
O114     O      0.793600000000     0.653700000000     0.591300000000     0          
C115     C      0.898600000000     0.832300000000     0.805400000000     0          
C116     C      0.951300000000     0.894400000000     0.876400000000     0          
H117     H      0.918400000000     0.906900000000     0.894200000000     0          
C118     C      0.952600000000     0.854700000000     0.825600000000     0          
C119     C      0.841200000000     0.664100000000     0.583800000000     0          
C120     C      0.958700000000     0.957600000000     0.009000000000     0          
Zr121    Zr     0.726160000000     0.317640000000     0.337530000000     0          
O122     O      0.597400000000     0.199300000000     0.253200000000     0          
O123     O      0.640400000000     0.154400000000     0.335400000000     0          
O124     O      0.631400000000     0.299500000000     0.121900000000     0          
O125     O      0.705200000000     0.317400000000     0.229800000000     0          
O126     O      0.706400000000     0.346300000000     0.091300000000     0          
C127     C      0.601400000000     0.167700000000     0.305400000000     0          
C128     C      0.548700000000     0.105600000000     0.376400000000     0          
H129     H      0.581600000000     0.093100000000     0.394200000000     0          
C130     C      0.547400000000     0.145300000000     0.325600000000     0          
C131     C      0.658800000000     0.335900000000     0.083800000000     0          
C132     C      0.542500000000     0.008100000000     0.444000000000     0          
Zr133    Zr     0.226160000000     0.817640000000     0.837530000000     0          
O134     O      0.097400000000     0.699300000000     0.753200000000     0          
O135     O      0.140400000000     0.654400000000     0.835400000000     0          
O136     O      0.131400000000     0.799500000000     0.621900000000     0          
O137     O      0.205200000000     0.817400000000     0.729800000000     0          
O138     O      0.206400000000     0.846300000000     0.591300000000     0          
C139     C      0.101400000000     0.667700000000     0.805400000000     0          
C140     C      0.048700000000     0.605600000000     0.876400000000     0          
H141     H      0.081600000000     0.593100000000     0.894200000000     0          
C142     C      0.047400000000     0.645300000000     0.825600000000     0          
C143     C      0.158800000000     0.835900000000     0.583800000000     0          
C144     C      0.042500000000     0.508100000000     0.944000000000     0          
Zr145    Zr     0.726160000000     0.682360000000     0.662470000000     0          
O146     O      0.597400000000     0.800700000000     0.746800000000     0          
O147     O      0.640400000000     0.845600000000     0.664600000000     0          
O148     O      0.631400000000     0.700500000000     0.878100000000     0          
O149     O      0.705200000000     0.682600000000     0.770200000000     0          
O150     O      0.706400000000     0.653700000000     0.908700000000     0          
C151     C      0.601400000000     0.832300000000     0.694600000000     0          
C152     C      0.548700000000     0.894400000000     0.623600000000     0          
H153     H      0.581600000000     0.906900000000     0.605800000000     0          
C154     C      0.547400000000     0.854700000000     0.674400000000     0          
C155     C      0.658800000000     0.664100000000     0.916200000000     0          
C156     C      0.541300000000     0.957600000000     0.491000000000     0          
Zr157    Zr     0.226160000000     0.182360000000     0.162470000000     0          
O158     O      0.097400000000     0.300700000000     0.246800000000     0          
O159     O      0.140400000000     0.345600000000     0.164600000000     0          
O160     O      0.131400000000     0.200500000000     0.378100000000     0          
O161     O      0.205200000000     0.182600000000     0.270200000000     0          
O162     O      0.206400000000     0.153700000000     0.408700000000     0          
C163     C      0.101400000000     0.332300000000     0.194600000000     0          
C164     C      0.048700000000     0.394400000000     0.123600000000     0          
H165     H      0.081600000000     0.406900000000     0.105800000000     0          
C166     C      0.047400000000     0.354700000000     0.174400000000     0          
C167     C      0.158800000000     0.164100000000     0.416200000000     0          
C168     C      0.041300000000     0.457600000000     0.991000000000     0          
Zr169    Zr     0.273840000000     0.817640000000     0.662470000000     0          
O170     O      0.402600000000     0.699300000000     0.746800000000     0          
O171     O      0.359600000000     0.654400000000     0.664600000000     0          
O172     O      0.368600000000     0.799500000000     0.878100000000     0          
O173     O      0.294800000000     0.817400000000     0.770200000000     0          
O174     O      0.293600000000     0.846300000000     0.908700000000     0          
C175     C      0.398600000000     0.667700000000     0.694600000000     0          
C176     C      0.451300000000     0.605600000000     0.623600000000     0          
H177     H      0.418400000000     0.593100000000     0.605800000000     0          
C178     C      0.452600000000     0.645300000000     0.674400000000     0          
C179     C      0.341200000000     0.835900000000     0.916200000000     0          
C180     C      0.457500000000     0.508100000000     0.556000000000     0          
Zr181    Zr     0.773840000000     0.317640000000     0.162470000000     0          
O182     O      0.902600000000     0.199300000000     0.246800000000     0          
O183     O      0.859600000000     0.154400000000     0.164600000000     0          
O184     O      0.868600000000     0.299500000000     0.378100000000     0          
O185     O      0.794800000000     0.317400000000     0.270200000000     0          
O186     O      0.793600000000     0.346300000000     0.408700000000     0          
C187     C      0.898600000000     0.167700000000     0.194600000000     0          
C188     C      0.951300000000     0.105600000000     0.123600000000     0          
H189     H      0.918400000000     0.093100000000     0.105800000000     0          
C190     C      0.952600000000     0.145300000000     0.174400000000     0          
C191     C      0.841200000000     0.335900000000     0.416200000000     0          
C192     C      0.957500000000     0.008100000000     0.056000000000     0          
Zr193    Zr     0.657890000000     0.750000000000     0.793520000000     0          
O194     O      0.684400000000     0.750000000000     0.684300000000     0          
O195     O      0.770600000000     0.750000000000     0.640000000000     0          
Zr196    Zr     0.157890000000     0.250000000000     0.293520000000     0          
O197     O      0.184400000000     0.250000000000     0.184300000000     0          
O198     O      0.270600000000     0.250000000000     0.140000000000     0          
Zr199    Zr     0.342110000000     0.750000000000     0.793520000000     0          
O200     O      0.315600000000     0.750000000000     0.684300000000     0          
O201     O      0.229400000000     0.750000000000     0.640000000000     0          
Zr202    Zr     0.842110000000     0.250000000000     0.293520000000     0          
O203     O      0.815600000000     0.250000000000     0.184300000000     0          
O204     O      0.729400000000     0.250000000000     0.140000000000     0          
Zr205    Zr     0.342110000000     0.250000000000     0.206480000000     0          
O206     O      0.315600000000     0.250000000000     0.315700000000     0          
O207     O      0.229400000000     0.250000000000     0.360000000000     0          
Zr208    Zr     0.842110000000     0.750000000000     0.706480000000     0          
O209     O      0.815600000000     0.750000000000     0.815700000000     0          
O210     O      0.729400000000     0.750000000000     0.860000000000     0          
Zr211    Zr     0.657890000000     0.250000000000     0.206480000000     0          
O212     O      0.684400000000     0.250000000000     0.315700000000     0          
O213     O      0.770600000000     0.250000000000     0.360000000000     0          
Zr214    Zr     0.157890000000     0.750000000000     0.706480000000     0          
O215     O      0.184400000000     0.750000000000     0.815700000000     0          
O216     O      0.270600000000     0.750000000000     0.860000000000     0          
C217     C      0.500000000000     0.663300000000     0.698600000000     0          
H218     H      0.500000000000     0.689300000000     0.733700000000     0          
C219     C      0.500000000000     0.584800000000     0.600000000000     0          
C220     C      0.500000000000     0.543600000000     0.548000000000     0          
C221     C      0.000000000000     0.163300000000     0.198600000000     0          
H222     H      0.000000000000     0.189300000000     0.233700000000     0          
C223     C      0.000000000000     0.084800000000     0.100000000000     0          
C224     C      0.000000000000     0.043600000000     0.048000000000     0          
C225     C      0.500000000000     0.836700000000     0.698600000000     0          
H226     H      0.500000000000     0.810700000000     0.733700000000     0          
C227     C      0.500000000000     0.915200000000     0.600000000000     0          
C228     C      0.500000000000     0.956400000000     0.548000000000     0          
C229     C      0.000000000000     0.336700000000     0.198600000000     0          
H230     H      0.000000000000     0.310700000000     0.233700000000     0          
C231     C      0.000000000000     0.415200000000     0.100000000000     0          
C232     C      0.000000000000     0.456400000000     0.048000000000     0          
C233     C      0.500000000000     0.163300000000     0.301400000000     0          
H234     H      0.500000000000     0.189300000000     0.266300000000     0          
C235     C      0.500000000000     0.084800000000     0.400000000000     0          
C236     C      0.500000000000     0.043600000000     0.452000000000     0          
C237     C      0.000000000000     0.663300000000     0.801400000000     0          
H238     H      0.000000000000     0.689300000000     0.766300000000     0          
C239     C      0.000000000000     0.584800000000     0.900000000000     0          
C240     C      0.000000000000     0.543600000000     0.952000000000     0          
C241     C      0.500000000000     0.336700000000     0.301400000000     0          
H242     H      0.500000000000     0.310700000000     0.266300000000     0          
C243     C      0.500000000000     0.415200000000     0.400000000000     0          
C244     C      0.500000000000     0.456400000000     0.452000000000     0          
C245     C      0.000000000000     0.836700000000     0.801400000000     0          
H246     H      0.000000000000     0.810700000000     0.766300000000     0          
C247     C      0.000000000000     0.915200000000     0.900000000000     0          
C248     C      0.000000000000     0.956400000000     0.952000000000     0          
H249     H      0.569290000000     0.576350000000     0.483600000000     0          
H250     H      0.575940000000     0.483680000000     0.404870000000     0          
H251     H      0.430710000000     0.423650000000     0.516400000000     0          
H252     H      0.424060000000     0.516320000000     0.595130000000     0          
H253     H      0.424060000000     0.983680000000     0.595130000000     0          
H254     H      0.569290000000     0.923650000000     0.483600000000     0          
H255     H      0.430710000000     0.076350000000     0.516400000000     0          
H256     H      0.575940000000     0.016320000000     0.404870000000     0          
H257     H      0.075940000000     0.516320000000     0.904870000000     0          
H258     H      0.069290000000     0.423650000000     0.983600000000     0          
H259     H      0.924060000000     0.483680000000     0.095130000000     0          
H260     H      0.930710000000     0.576350000000     0.016400000000     0          
H261     H      0.075940000000     0.983680000000     0.904870000000     0          
H262     H      0.069290000000     0.076350000000     0.983600000000     0          
H263     H      0.930710000000     0.923650000000     0.016400000000     0          
H264     H      0.924060000000     0.016320000000     0.095130000000     0          


