data_FINMIB

_audit_creation_method RASPA-1.0
_audit_creation_date 2020-11-2
_audit_author_name 'Rocio Bueno-Perez'

_cell_length_a    25.297
_cell_length_b    28.549
_cell_length_c    13.719
_cell_angle_alpha 90
_cell_angle_beta  90
_cell_angle_gamma 90
_cell_volume      9907.92

_symmetry_cell_setting          triclinic
_symmetry_space_group_name_Hall 'P 1'
_symmetry_space_group_name_H-M  'P 1'
_symmetry_Int_Tables_number     1

_symmetry_equiv_pos_as_xyz 'x,y,z'

loop_
_atom_site_label
_atom_site_type_symbol
_atom_site_fract_x
_atom_site_fract_y
_atom_site_fract_z
_atom_site_charge
Zr1      Zr     0.778170000000     0.811460000000     0.366300000000     0          
O2       O      0.598900000000     0.703300000000     0.260300000000     0          
O3       O      0.706400000000     0.808900000000     0.279800000000     0          
O4       O      0.638200000000     0.664400000000     0.144200000000     0          
O5       O      0.639200000000     0.798100000000     0.433800000000     0          
C6       C      0.598400000000     0.675900000000     0.187500000000     0          
O7       O      0.717700000000     0.838500000000     0.475000000000     0          
C8       C      0.547400000000     0.652700000000     0.171900000000     0          
C9       C      0.547000000000     0.611800000000     0.126400000000     0          
H10      H      0.579500000000     0.596300000000     0.113900000000     0          
C11      C      0.665300000000     0.825800000000     0.485600000000     0          
C12      C      0.462200000000     0.532500000000     0.976000000000     0          
H13      H      0.437200000000     0.555800000000     0.957700000000     0          
Zr14     Zr     0.278170000000     0.311460000000     0.866300000000     0          
O15      O      0.098900000000     0.203300000000     0.760300000000     0          
O16      O      0.206400000000     0.308900000000     0.779800000000     0          
O17      O      0.138200000000     0.164400000000     0.644200000000     0          
O18      O      0.139200000000     0.298100000000     0.933800000000     0          
C19      C      0.098400000000     0.175900000000     0.687500000000     0          
O20      O      0.217700000000     0.338500000000     0.975000000000     0          
C21      C      0.047400000000     0.152700000000     0.671900000000     0          
C22      C      0.047000000000     0.111800000000     0.626400000000     0          
H23      H      0.079500000000     0.096300000000     0.613900000000     0          
C24      C      0.165300000000     0.325800000000     0.985600000000     0          
C25      C      0.960700000000     0.009000000000     0.575000000000     0          
H26      H      0.933600000000     0.014400000000     0.621600000000     0          
Zr27     Zr     0.221830000000     0.688540000000     0.366300000000     0          
O28      O      0.401100000000     0.796700000000     0.260300000000     0          
O29      O      0.293600000000     0.691100000000     0.279800000000     0          
O30      O      0.361800000000     0.835600000000     0.144200000000     0          
O31      O      0.360800000000     0.701900000000     0.433800000000     0          
C32      C      0.401600000000     0.824100000000     0.187500000000     0          
O33      O      0.282300000000     0.661500000000     0.475000000000     0          
C34      C      0.452600000000     0.847300000000     0.171900000000     0          
C35      C      0.453000000000     0.888200000000     0.126400000000     0          
H36      H      0.420500000000     0.903700000000     0.113900000000     0          
C37      C      0.334700000000     0.674200000000     0.485600000000     0          
C38      C      0.537800000000     0.967500000000     0.976000000000     0          
H39      H      0.562800000000     0.944200000000     0.957700000000     0          
Zr40     Zr     0.721830000000     0.188540000000     0.866300000000     0          
O41      O      0.901100000000     0.296700000000     0.760300000000     0          
O42      O      0.793600000000     0.191100000000     0.779800000000     0          
O43      O      0.861800000000     0.335600000000     0.644200000000     0          
O44      O      0.860800000000     0.201900000000     0.933800000000     0          
C45      C      0.901600000000     0.324100000000     0.687500000000     0          
O46      O      0.782300000000     0.161500000000     0.975000000000     0          
C47      C      0.952600000000     0.347300000000     0.671900000000     0          
C48      C      0.953000000000     0.388200000000     0.626400000000     0          
H49      H      0.920500000000     0.403700000000     0.613900000000     0          
C50      C      0.834700000000     0.174200000000     0.985600000000     0          
C51      C      0.037800000000     0.467500000000     0.476000000000     0          
H52      H      0.062800000000     0.444200000000     0.457700000000     0          
Zr53     Zr     0.221830000000     0.311460000000     0.633700000000     0          
O54      O      0.401100000000     0.203300000000     0.739700000000     0          
O55      O      0.293600000000     0.308900000000     0.720200000000     0          
O56      O      0.361800000000     0.164400000000     0.855800000000     0          
O57      O      0.360800000000     0.298100000000     0.566200000000     0          
C58      C      0.401600000000     0.175900000000     0.812500000000     0          
O59      O      0.282300000000     0.338500000000     0.525000000000     0          
C60      C      0.452600000000     0.152700000000     0.828100000000     0          
C61      C      0.453000000000     0.111800000000     0.873600000000     0          
H62      H      0.420500000000     0.096300000000     0.886100000000     0          
C63      C      0.334700000000     0.325800000000     0.514400000000     0          
C64      C      0.539300000000     0.009000000000     0.925000000000     0          
H65      H      0.566400000000     0.014400000000     0.878400000000     0          
Zr66     Zr     0.721830000000     0.811460000000     0.133700000000     0          
O67      O      0.901100000000     0.703300000000     0.239700000000     0          
O68      O      0.793600000000     0.808900000000     0.220200000000     0          
O69      O      0.861800000000     0.664400000000     0.355800000000     0          
O70      O      0.860800000000     0.798100000000     0.066200000000     0          
C71      C      0.901600000000     0.675900000000     0.312500000000     0          
O72      O      0.782300000000     0.838500000000     0.025000000000     0          
C73      C      0.952600000000     0.652700000000     0.328100000000     0          
C74      C      0.953000000000     0.611800000000     0.373600000000     0          
H75      H      0.920500000000     0.596300000000     0.386100000000     0          
C76      C      0.834700000000     0.825800000000     0.014400000000     0          
C77      C      0.039300000000     0.509000000000     0.425000000000     0          
H78      H      0.066400000000     0.514400000000     0.378400000000     0          
Zr79     Zr     0.778170000000     0.188540000000     0.633700000000     0          
O80      O      0.598900000000     0.296700000000     0.739700000000     0          
O81      O      0.706400000000     0.191100000000     0.720200000000     0          
O82      O      0.638200000000     0.335600000000     0.855800000000     0          
O83      O      0.639200000000     0.201900000000     0.566200000000     0          
C84      C      0.598400000000     0.324100000000     0.812500000000     0          
O85      O      0.717700000000     0.161500000000     0.525000000000     0          
C86      C      0.547400000000     0.347300000000     0.828100000000     0          
C87      C      0.547000000000     0.388200000000     0.873600000000     0          
H88      H      0.579500000000     0.403700000000     0.886100000000     0          
C89      C      0.665300000000     0.174200000000     0.514400000000     0          
C90      C      0.460700000000     0.491000000000     0.925000000000     0          
H91      H      0.433600000000     0.485600000000     0.878400000000     0          
Zr92     Zr     0.278170000000     0.688540000000     0.133700000000     0          
O93      O      0.098900000000     0.796700000000     0.239700000000     0          
O94      O      0.206400000000     0.691100000000     0.220200000000     0          
O95      O      0.138200000000     0.835600000000     0.355800000000     0          
O96      O      0.139200000000     0.701900000000     0.066200000000     0          
C97      C      0.098400000000     0.824100000000     0.312500000000     0          
O98      O      0.217700000000     0.661500000000     0.025000000000     0          
C99      C      0.047400000000     0.847300000000     0.328100000000     0          
C100     C      0.047000000000     0.888200000000     0.373600000000     0          
H101     H      0.079500000000     0.903700000000     0.386100000000     0          
C102     C      0.165300000000     0.674200000000     0.014400000000     0          
C103     C      0.962200000000     0.967500000000     0.524000000000     0          
H104     H      0.937200000000     0.944200000000     0.542300000000     0          
Zr105    Zr     0.221830000000     0.188540000000     0.633700000000     0          
O106     O      0.401100000000     0.296700000000     0.739700000000     0          
O107     O      0.293600000000     0.191100000000     0.720200000000     0          
O108     O      0.361800000000     0.335600000000     0.855800000000     0          
O109     O      0.360800000000     0.201900000000     0.566200000000     0          
C110     C      0.401600000000     0.324100000000     0.812500000000     0          
O111     O      0.282300000000     0.161500000000     0.525000000000     0          
C112     C      0.452600000000     0.347300000000     0.828100000000     0          
C113     C      0.453000000000     0.388200000000     0.873600000000     0          
H114     H      0.420500000000     0.403700000000     0.886100000000     0          
C115     C      0.334700000000     0.174200000000     0.514400000000     0          
C116     C      0.537800000000     0.467500000000     0.024000000000     0          
H117     H      0.562800000000     0.444200000000     0.042300000000     0          
Zr118    Zr     0.721830000000     0.688540000000     0.133700000000     0          
O119     O      0.901100000000     0.796700000000     0.239700000000     0          
O120     O      0.793600000000     0.691100000000     0.220200000000     0          
O121     O      0.861800000000     0.835600000000     0.355800000000     0          
O122     O      0.860800000000     0.701900000000     0.066200000000     0          
C123     C      0.901600000000     0.824100000000     0.312500000000     0          
O124     O      0.782300000000     0.661500000000     0.025000000000     0          
C125     C      0.952600000000     0.847300000000     0.328100000000     0          
C126     C      0.953000000000     0.888200000000     0.373600000000     0          
H127     H      0.920500000000     0.903700000000     0.386100000000     0          
C128     C      0.834700000000     0.674200000000     0.014400000000     0          
C129     C      0.039300000000     0.991000000000     0.425000000000     0          
H130     H      0.066400000000     0.985600000000     0.378400000000     0          
Zr131    Zr     0.778170000000     0.311460000000     0.633700000000     0          
O132     O      0.598900000000     0.203300000000     0.739700000000     0          
O133     O      0.706400000000     0.308900000000     0.720200000000     0          
O134     O      0.638200000000     0.164400000000     0.855800000000     0          
O135     O      0.639200000000     0.298100000000     0.566200000000     0          
C136     C      0.598400000000     0.175900000000     0.812500000000     0          
O137     O      0.717700000000     0.338500000000     0.525000000000     0          
C138     C      0.547400000000     0.152700000000     0.828100000000     0          
C139     C      0.547000000000     0.111800000000     0.873600000000     0          
H140     H      0.579500000000     0.096300000000     0.886100000000     0          
C141     C      0.665300000000     0.325800000000     0.514400000000     0          
C142     C      0.462200000000     0.032500000000     0.024000000000     0          
H143     H      0.437200000000     0.055800000000     0.042300000000     0          
Zr144    Zr     0.278170000000     0.811460000000     0.133700000000     0          
O145     O      0.098900000000     0.703300000000     0.239700000000     0          
O146     O      0.206400000000     0.808900000000     0.220200000000     0          
O147     O      0.138200000000     0.664400000000     0.355800000000     0          
O148     O      0.139200000000     0.798100000000     0.066200000000     0          
C149     C      0.098400000000     0.675900000000     0.312500000000     0          
O150     O      0.217700000000     0.838500000000     0.025000000000     0          
C151     C      0.047400000000     0.652700000000     0.328100000000     0          
C152     C      0.047000000000     0.611800000000     0.373600000000     0          
H153     H      0.079500000000     0.596300000000     0.386100000000     0          
C154     C      0.165300000000     0.825800000000     0.014400000000     0          
C155     C      0.962200000000     0.532500000000     0.524000000000     0          
H156     H      0.937200000000     0.555800000000     0.542300000000     0          
Zr157    Zr     0.778170000000     0.688540000000     0.366300000000     0          
O158     O      0.598900000000     0.796700000000     0.260300000000     0          
O159     O      0.706400000000     0.691100000000     0.279800000000     0          
O160     O      0.638200000000     0.835600000000     0.144200000000     0          
O161     O      0.639200000000     0.701900000000     0.433800000000     0          
C162     C      0.598400000000     0.824100000000     0.187500000000     0          
O163     O      0.717700000000     0.661500000000     0.475000000000     0          
C164     C      0.547400000000     0.847300000000     0.171900000000     0          
C165     C      0.547000000000     0.888200000000     0.126400000000     0          
H166     H      0.579500000000     0.903700000000     0.113900000000     0          
C167     C      0.665300000000     0.674200000000     0.485600000000     0          
C168     C      0.460700000000     0.991000000000     0.075000000000     0          
H169     H      0.433600000000     0.985600000000     0.121600000000     0          
Zr170    Zr     0.278170000000     0.188540000000     0.866300000000     0          
O171     O      0.098900000000     0.296700000000     0.760300000000     0          
O172     O      0.206400000000     0.191100000000     0.779800000000     0          
O173     O      0.138200000000     0.335600000000     0.644200000000     0          
O174     O      0.139200000000     0.201900000000     0.933800000000     0          
C175     C      0.098400000000     0.324100000000     0.687500000000     0          
O176     O      0.217700000000     0.161500000000     0.975000000000     0          
C177     C      0.047400000000     0.347300000000     0.671900000000     0          
C178     C      0.047000000000     0.388200000000     0.626400000000     0          
H179     H      0.079500000000     0.403700000000     0.613900000000     0          
C180     C      0.165300000000     0.174200000000     0.985600000000     0          
C181     C      0.960700000000     0.491000000000     0.575000000000     0          
H182     H      0.933600000000     0.485600000000     0.621600000000     0          
Zr183    Zr     0.221830000000     0.811460000000     0.366300000000     0          
O184     O      0.401100000000     0.703300000000     0.260300000000     0          
O185     O      0.293600000000     0.808900000000     0.279800000000     0          
O186     O      0.361800000000     0.664400000000     0.144200000000     0          
O187     O      0.360800000000     0.798100000000     0.433800000000     0          
C188     C      0.401600000000     0.675900000000     0.187500000000     0          
O189     O      0.282300000000     0.838500000000     0.475000000000     0          
C190     C      0.452600000000     0.652700000000     0.171900000000     0          
C191     C      0.453000000000     0.611800000000     0.126400000000     0          
H192     H      0.420500000000     0.596300000000     0.113900000000     0          
C193     C      0.334700000000     0.825800000000     0.485600000000     0          
C194     C      0.539300000000     0.509000000000     0.075000000000     0          
H195     H      0.566400000000     0.514400000000     0.121600000000     0          
Zr196    Zr     0.721830000000     0.311460000000     0.866300000000     0          
O197     O      0.901100000000     0.203300000000     0.760300000000     0          
O198     O      0.793600000000     0.308900000000     0.779800000000     0          
O199     O      0.861800000000     0.164400000000     0.644200000000     0          
O200     O      0.860800000000     0.298100000000     0.933800000000     0          
C201     C      0.901600000000     0.175900000000     0.687500000000     0          
O202     O      0.782300000000     0.338500000000     0.975000000000     0          
C203     C      0.952600000000     0.152700000000     0.671900000000     0          
C204     C      0.953000000000     0.111800000000     0.626400000000     0          
H205     H      0.920500000000     0.096300000000     0.613900000000     0          
C206     C      0.834700000000     0.325800000000     0.985600000000     0          
C207     C      0.037800000000     0.032500000000     0.476000000000     0          
H208     H      0.062800000000     0.055800000000     0.457700000000     0          
Zr209    Zr     0.661200000000     0.750000000000     0.321400000000     0          
O210     O      0.817900000000     0.750000000000     0.335200000000     0          
O211     O      0.734700000000     0.750000000000     0.402500000000     0          
Zr212    Zr     0.161200000000     0.250000000000     0.821400000000     0          
O213     O      0.317900000000     0.250000000000     0.835200000000     0          
O214     O      0.234700000000     0.250000000000     0.902500000000     0          
Zr215    Zr     0.338800000000     0.750000000000     0.321400000000     0          
O216     O      0.182100000000     0.750000000000     0.335200000000     0          
O217     O      0.265300000000     0.750000000000     0.402500000000     0          
Zr218    Zr     0.838800000000     0.250000000000     0.821400000000     0          
O219     O      0.682100000000     0.250000000000     0.835200000000     0          
O220     O      0.765300000000     0.250000000000     0.902500000000     0          
Zr221    Zr     0.338800000000     0.250000000000     0.678600000000     0          
O222     O      0.182100000000     0.250000000000     0.664800000000     0          
O223     O      0.265300000000     0.250000000000     0.597500000000     0          
Zr224    Zr     0.838800000000     0.750000000000     0.178600000000     0          
O225     O      0.682100000000     0.750000000000     0.164800000000     0          
O226     O      0.765300000000     0.750000000000     0.097500000000     0          
Zr227    Zr     0.661200000000     0.250000000000     0.678600000000     0          
O228     O      0.817900000000     0.250000000000     0.664800000000     0          
O229     O      0.734700000000     0.250000000000     0.597500000000     0          
Zr230    Zr     0.161200000000     0.750000000000     0.178600000000     0          
O231     O      0.317900000000     0.750000000000     0.164800000000     0          
O232     O      0.234700000000     0.750000000000     0.097500000000     0          
C233     C      0.500000000000     0.675300000000     0.201700000000     0          
H234     H      0.500000000000     0.703400000000     0.238800000000     0          
C235     C      0.500000000000     0.591100000000     0.096000000000     0          
C236     C      0.500000000000     0.544400000000     0.058000000000     0          
C237     C      0.000000000000     0.175300000000     0.701700000000     0          
H238     H      0.000000000000     0.203400000000     0.738800000000     0          
C239     C      0.000000000000     0.091100000000     0.596000000000     0          
C240     C      0.000000000000     0.044400000000     0.558000000000     0          
C241     C      0.500000000000     0.824700000000     0.201700000000     0          
H242     H      0.500000000000     0.796600000000     0.238800000000     0          
C243     C      0.500000000000     0.908900000000     0.096000000000     0          
C244     C      0.500000000000     0.955600000000     0.058000000000     0          
C245     C      0.000000000000     0.324700000000     0.701700000000     0          
H246     H      0.000000000000     0.296600000000     0.738800000000     0          
C247     C      0.000000000000     0.408900000000     0.596000000000     0          
C248     C      0.000000000000     0.455600000000     0.558000000000     0          
C249     C      0.500000000000     0.175300000000     0.798300000000     0          
H250     H      0.500000000000     0.203400000000     0.761200000000     0          
C251     C      0.500000000000     0.091100000000     0.904000000000     0          
C252     C      0.500000000000     0.044400000000     0.942000000000     0          
C253     C      0.000000000000     0.675300000000     0.298300000000     0          
H254     H      0.000000000000     0.703400000000     0.261200000000     0          
C255     C      0.000000000000     0.591100000000     0.404000000000     0          
C256     C      0.000000000000     0.544400000000     0.442000000000     0          
C257     C      0.500000000000     0.324700000000     0.798300000000     0          
H258     H      0.500000000000     0.296600000000     0.761200000000     0          
C259     C      0.500000000000     0.408900000000     0.904000000000     0          
C260     C      0.500000000000     0.455600000000     0.942000000000     0          
C261     C      0.000000000000     0.824700000000     0.298300000000     0          
H262     H      0.000000000000     0.796600000000     0.261200000000     0          
C263     C      0.000000000000     0.908900000000     0.404000000000     0          
C264     C      0.000000000000     0.955600000000     0.442000000000     0          


