data_FINMAT

_audit_creation_method RASPA-1.0
_audit_creation_date 2020-11-2
_audit_author_name 'Rocio Bueno-Perez'

_cell_length_a    25.2517
_cell_length_b    29.1742
_cell_length_c    12.7318
_cell_angle_alpha 90
_cell_angle_beta  90
_cell_angle_gamma 90
_cell_volume      9379.49

_symmetry_cell_setting          triclinic
_symmetry_space_group_name_Hall 'P 1'
_symmetry_space_group_name_H-M  'P 1'
_symmetry_Int_Tables_number     1

_symmetry_equiv_pos_as_xyz 'x,y,z'

loop_
_atom_site_label
_atom_site_type_symbol
_atom_site_fract_x
_atom_site_fract_y
_atom_site_fract_z
_atom_site_charge
Zr1      Zr     0.280250000000     0.190180000000     0.373220000000     0          
O2       O      0.401200000000     0.296000000000     0.230000000000     0          
O3       O      0.362000000000     0.336200000000     0.358900000000     0          
O4       O      0.207700000000     0.192300000000     0.293400000000     0          
C5       C      0.453100000000     0.348200000000     0.323900000000     0          
C6       C      0.401900000000     0.324700000000     0.303400000000     0          
C7       C      0.453500000000     0.388900000000     0.372300000000     0          
H8       H      0.420900000000     0.404300000000     0.384200000000     0          
C9       C      0.540000000000     0.467400000000     0.534000000000     0          
H10      H      0.563700000000     0.445200000000     0.561800000000     0          
O11      O      0.270000000000     0.115200000000     0.332300000000     0          
Zr12     Zr     0.780250000000     0.690180000000     0.873220000000     0          
O13      O      0.901200000000     0.796000000000     0.730000000000     0          
O14      O      0.862000000000     0.836200000000     0.858900000000     0          
O15      O      0.707700000000     0.692300000000     0.793400000000     0          
C16      C      0.953100000000     0.848200000000     0.823900000000     0          
C17      C      0.901900000000     0.824700000000     0.803400000000     0          
C18      C      0.953500000000     0.888900000000     0.872300000000     0          
H19      H      0.920900000000     0.904300000000     0.884200000000     0          
C20      C      0.040700000000     0.988900000000     0.936000000000     0          
H21      H      0.070800000000     0.978600000000     0.897900000000     0          
O22      O      0.770000000000     0.615200000000     0.832300000000     0          
Zr23     Zr     0.719750000000     0.309820000000     0.373220000000     0          
O24      O      0.598800000000     0.204000000000     0.230000000000     0          
O25      O      0.638000000000     0.163800000000     0.358900000000     0          
O26      O      0.792300000000     0.307700000000     0.293400000000     0          
C27      C      0.546900000000     0.151800000000     0.323900000000     0          
C28      C      0.598100000000     0.175300000000     0.303400000000     0          
C29      C      0.546500000000     0.111100000000     0.372300000000     0          
H30      H      0.579100000000     0.095700000000     0.384200000000     0          
C31      C      0.460000000000     0.032600000000     0.534000000000     0          
H32      H      0.436300000000     0.054800000000     0.561800000000     0          
O33      O      0.730000000000     0.384800000000     0.332300000000     0          
Zr34     Zr     0.219750000000     0.809820000000     0.873220000000     0          
O35      O      0.098800000000     0.704000000000     0.730000000000     0          
O36      O      0.138000000000     0.663800000000     0.858900000000     0          
O37      O      0.292300000000     0.807700000000     0.793400000000     0          
C38      C      0.046900000000     0.651800000000     0.823900000000     0          
C39      C      0.098100000000     0.675300000000     0.803400000000     0          
C40      C      0.046500000000     0.611100000000     0.872300000000     0          
H41      H      0.079100000000     0.595700000000     0.884200000000     0          
C42      C      0.960000000000     0.532600000000     0.034000000000     0          
H43      H      0.936300000000     0.554800000000     0.061800000000     0          
O44      O      0.230000000000     0.884800000000     0.832300000000     0          
Zr45     Zr     0.719750000000     0.690180000000     0.626780000000     0          
O46      O      0.598800000000     0.796000000000     0.770000000000     0          
O47      O      0.638000000000     0.836200000000     0.641100000000     0          
O48      O      0.792300000000     0.692300000000     0.706600000000     0          
C49      C      0.546900000000     0.848200000000     0.676100000000     0          
C50      C      0.598100000000     0.824700000000     0.696600000000     0          
C51      C      0.546500000000     0.888900000000     0.627700000000     0          
H52      H      0.579100000000     0.904300000000     0.615800000000     0          
C53      C      0.459300000000     0.988900000000     0.564000000000     0          
H54      H      0.429200000000     0.978600000000     0.602100000000     0          
O55      O      0.730000000000     0.615200000000     0.667700000000     0          
Zr56     Zr     0.219750000000     0.190180000000     0.126780000000     0          
O57      O      0.098800000000     0.296000000000     0.270000000000     0          
O58      O      0.138000000000     0.336200000000     0.141100000000     0          
O59      O      0.292300000000     0.192300000000     0.206600000000     0          
C60      C      0.046900000000     0.348200000000     0.176100000000     0          
C61      C      0.098100000000     0.324700000000     0.196600000000     0          
C62      C      0.046500000000     0.388900000000     0.127700000000     0          
H63      H      0.079100000000     0.404300000000     0.115800000000     0          
C64      C      0.959300000000     0.488900000000     0.064000000000     0          
H65      H      0.929200000000     0.478600000000     0.102100000000     0          
O66      O      0.230000000000     0.115200000000     0.167700000000     0          
Zr67     Zr     0.280250000000     0.809820000000     0.626780000000     0          
O68      O      0.401200000000     0.704000000000     0.770000000000     0          
O69      O      0.362000000000     0.663800000000     0.641100000000     0          
O70      O      0.207700000000     0.807700000000     0.706600000000     0          
C71      C      0.453100000000     0.651800000000     0.676100000000     0          
C72      C      0.401900000000     0.675300000000     0.696600000000     0          
C73      C      0.453500000000     0.611100000000     0.627700000000     0          
H74      H      0.420900000000     0.595700000000     0.615800000000     0          
C75      C      0.540700000000     0.511100000000     0.564000000000     0          
H76      H      0.570800000000     0.521400000000     0.602100000000     0          
O77      O      0.270000000000     0.884800000000     0.667700000000     0          
Zr78     Zr     0.780250000000     0.309820000000     0.126780000000     0          
O79      O      0.901200000000     0.204000000000     0.270000000000     0          
O80      O      0.862000000000     0.163800000000     0.141100000000     0          
O81      O      0.707700000000     0.307700000000     0.206600000000     0          
C82      C      0.953100000000     0.151800000000     0.176100000000     0          
C83      C      0.901900000000     0.175300000000     0.196600000000     0          
C84      C      0.953500000000     0.111100000000     0.127700000000     0          
H85      H      0.920900000000     0.095700000000     0.115800000000     0          
C86      C      0.040000000000     0.032600000000     0.966000000000     0          
H87      H      0.063700000000     0.054800000000     0.938200000000     0          
O88      O      0.770000000000     0.384800000000     0.167700000000     0          
Zr89     Zr     0.719750000000     0.809820000000     0.626780000000     0          
O90      O      0.598800000000     0.704000000000     0.770000000000     0          
O91      O      0.638000000000     0.663800000000     0.641100000000     0          
O92      O      0.792300000000     0.807700000000     0.706600000000     0          
C93      C      0.546900000000     0.651800000000     0.676100000000     0          
C94      C      0.598100000000     0.675300000000     0.696600000000     0          
C95      C      0.546500000000     0.611100000000     0.627700000000     0          
H96      H      0.579100000000     0.595700000000     0.615800000000     0          
C97      C      0.460000000000     0.532600000000     0.466000000000     0          
H98      H      0.436300000000     0.554800000000     0.438200000000     0          
O99      O      0.730000000000     0.884800000000     0.667700000000     0          
Zr100    Zr     0.219750000000     0.309820000000     0.126780000000     0          
O101     O      0.098800000000     0.204000000000     0.270000000000     0          
O102     O      0.138000000000     0.163800000000     0.141100000000     0          
O103     O      0.292300000000     0.307700000000     0.206600000000     0          
C104     C      0.046900000000     0.151800000000     0.176100000000     0          
C105     C      0.098100000000     0.175300000000     0.196600000000     0          
C106     C      0.046500000000     0.111100000000     0.127700000000     0          
H107     H      0.079100000000     0.095700000000     0.115800000000     0          
C108     C      0.959300000000     0.011100000000     0.064000000000     0          
H109     H      0.929200000000     0.021400000000     0.102100000000     0          
O110     O      0.230000000000     0.384800000000     0.167700000000     0          
Zr111    Zr     0.280250000000     0.690180000000     0.626780000000     0          
O112     O      0.401200000000     0.796000000000     0.770000000000     0          
O113     O      0.362000000000     0.836200000000     0.641100000000     0          
O114     O      0.207700000000     0.692300000000     0.706600000000     0          
C115     C      0.453100000000     0.848200000000     0.676100000000     0          
C116     C      0.401900000000     0.824700000000     0.696600000000     0          
C117     C      0.453500000000     0.888900000000     0.627700000000     0          
H118     H      0.420900000000     0.904300000000     0.615800000000     0          
C119     C      0.540000000000     0.967400000000     0.466000000000     0          
H120     H      0.563700000000     0.945200000000     0.438200000000     0          
O121     O      0.270000000000     0.615200000000     0.667700000000     0          
Zr122    Zr     0.780250000000     0.190180000000     0.126780000000     0          
O123     O      0.901200000000     0.296000000000     0.270000000000     0          
O124     O      0.862000000000     0.336200000000     0.141100000000     0          
O125     O      0.707700000000     0.192300000000     0.206600000000     0          
C126     C      0.953100000000     0.348200000000     0.176100000000     0          
C127     C      0.901900000000     0.324700000000     0.196600000000     0          
C128     C      0.953500000000     0.388900000000     0.127700000000     0          
H129     H      0.920900000000     0.404300000000     0.115800000000     0          
C130     C      0.040000000000     0.467400000000     0.966000000000     0          
H131     H      0.063700000000     0.445200000000     0.938200000000     0          
O132     O      0.770000000000     0.115200000000     0.167700000000     0          
Zr133    Zr     0.280250000000     0.309820000000     0.373220000000     0          
O134     O      0.401200000000     0.204000000000     0.230000000000     0          
O135     O      0.362000000000     0.163800000000     0.358900000000     0          
O136     O      0.207700000000     0.307700000000     0.293400000000     0          
C137     C      0.453100000000     0.151800000000     0.323900000000     0          
C138     C      0.401900000000     0.175300000000     0.303400000000     0          
C139     C      0.453500000000     0.111100000000     0.372300000000     0          
H140     H      0.420900000000     0.095700000000     0.384200000000     0          
C141     C      0.540700000000     0.011100000000     0.436000000000     0          
H142     H      0.570800000000     0.021400000000     0.397900000000     0          
O143     O      0.270000000000     0.384800000000     0.332300000000     0          
Zr144    Zr     0.780250000000     0.809820000000     0.873220000000     0          
O145     O      0.901200000000     0.704000000000     0.730000000000     0          
O146     O      0.862000000000     0.663800000000     0.858900000000     0          
O147     O      0.707700000000     0.807700000000     0.793400000000     0          
C148     C      0.953100000000     0.651800000000     0.823900000000     0          
C149     C      0.901900000000     0.675300000000     0.803400000000     0          
C150     C      0.953500000000     0.611100000000     0.872300000000     0          
H151     H      0.920900000000     0.595700000000     0.884200000000     0          
C152     C      0.040700000000     0.511100000000     0.936000000000     0          
H153     H      0.070800000000     0.521400000000     0.897900000000     0          
O154     O      0.770000000000     0.884800000000     0.832300000000     0          
Zr155    Zr     0.719750000000     0.190180000000     0.373220000000     0          
O156     O      0.598800000000     0.296000000000     0.230000000000     0          
O157     O      0.638000000000     0.336200000000     0.358900000000     0          
O158     O      0.792300000000     0.192300000000     0.293400000000     0          
C159     C      0.546900000000     0.348200000000     0.323900000000     0          
C160     C      0.598100000000     0.324700000000     0.303400000000     0          
C161     C      0.546500000000     0.388900000000     0.372300000000     0          
H162     H      0.579100000000     0.404300000000     0.384200000000     0          
C163     C      0.459300000000     0.488900000000     0.436000000000     0          
H164     H      0.429200000000     0.478600000000     0.397900000000     0          
O165     O      0.730000000000     0.115200000000     0.332300000000     0          
Zr166    Zr     0.219750000000     0.690180000000     0.873220000000     0          
O167     O      0.098800000000     0.796000000000     0.730000000000     0          
O168     O      0.138000000000     0.836200000000     0.858900000000     0          
O169     O      0.292300000000     0.692300000000     0.793400000000     0          
C170     C      0.046900000000     0.848200000000     0.823900000000     0          
C171     C      0.098100000000     0.824700000000     0.803400000000     0          
C172     C      0.046500000000     0.888900000000     0.872300000000     0          
H173     H      0.079100000000     0.904300000000     0.884200000000     0          
C174     C      0.960000000000     0.967400000000     0.034000000000     0          
H175     H      0.936300000000     0.945200000000     0.061800000000     0          
O176     O      0.230000000000     0.615200000000     0.832300000000     0          
Zr177    Zr     0.338910000000     0.250000000000     0.167220000000     0          
O178     O      0.320200000000     0.250000000000     0.336600000000     0          
O179     O      0.235600000000     0.250000000000     0.417500000000     0          
Zr180    Zr     0.838910000000     0.750000000000     0.667220000000     0          
O181     O      0.820200000000     0.750000000000     0.836600000000     0          
O182     O      0.735600000000     0.750000000000     0.917500000000     0          
Zr183    Zr     0.661090000000     0.250000000000     0.167220000000     0          
O184     O      0.679800000000     0.250000000000     0.336600000000     0          
O185     O      0.764400000000     0.250000000000     0.417500000000     0          
Zr186    Zr     0.161090000000     0.750000000000     0.667220000000     0          
O187     O      0.179800000000     0.750000000000     0.836600000000     0          
O188     O      0.264400000000     0.750000000000     0.917500000000     0          
Zr189    Zr     0.661090000000     0.750000000000     0.832780000000     0          
O190     O      0.679800000000     0.750000000000     0.663400000000     0          
O191     O      0.764400000000     0.750000000000     0.582500000000     0          
Zr192    Zr     0.161090000000     0.250000000000     0.332780000000     0          
O193     O      0.179800000000     0.250000000000     0.163400000000     0          
O194     O      0.264400000000     0.250000000000     0.082500000000     0          
Zr195    Zr     0.338910000000     0.750000000000     0.832780000000     0          
O196     O      0.320200000000     0.750000000000     0.663400000000     0          
O197     O      0.235600000000     0.750000000000     0.582500000000     0          
Zr198    Zr     0.838910000000     0.250000000000     0.332780000000     0          
O199     O      0.820200000000     0.250000000000     0.163400000000     0          
O200     O      0.735600000000     0.250000000000     0.082500000000     0          
C201     C      0.500000000000     0.327600000000     0.290600000000     0          
H202     H      0.500000000000     0.301100000000     0.247500000000     0          
C203     C      0.500000000000     0.409400000000     0.405000000000     0          
C204     C      0.500000000000     0.456200000000     0.456000000000     0          
C205     C      0.000000000000     0.827600000000     0.790600000000     0          
H206     H      0.000000000000     0.801100000000     0.747500000000     0          
C207     C      0.000000000000     0.909400000000     0.905000000000     0          
C208     C      0.000000000000     0.956200000000     0.956000000000     0          
C209     C      0.500000000000     0.172400000000     0.290600000000     0          
H210     H      0.500000000000     0.198900000000     0.247500000000     0          
C211     C      0.500000000000     0.090600000000     0.405000000000     0          
C212     C      0.500000000000     0.043800000000     0.456000000000     0          
C213     C      0.000000000000     0.672400000000     0.790600000000     0          
H214     H      0.000000000000     0.698900000000     0.747500000000     0          
C215     C      0.000000000000     0.590600000000     0.905000000000     0          
C216     C      0.000000000000     0.543800000000     0.956000000000     0          
C217     C      0.500000000000     0.827600000000     0.709400000000     0          
H218     H      0.500000000000     0.801100000000     0.752500000000     0          
C219     C      0.500000000000     0.909400000000     0.595000000000     0          
C220     C      0.500000000000     0.956200000000     0.544000000000     0          
C221     C      0.000000000000     0.327600000000     0.209400000000     0          
H222     H      0.000000000000     0.301100000000     0.252500000000     0          
C223     C      0.000000000000     0.409400000000     0.095000000000     0          
C224     C      0.000000000000     0.456200000000     0.044000000000     0          
C225     C      0.500000000000     0.672400000000     0.709400000000     0          
H226     H      0.500000000000     0.698900000000     0.752500000000     0          
C227     C      0.500000000000     0.590600000000     0.595000000000     0          
C228     C      0.500000000000     0.543800000000     0.544000000000     0          
C229     C      0.000000000000     0.172400000000     0.209400000000     0          
H230     H      0.000000000000     0.198900000000     0.252500000000     0          
C231     C      0.000000000000     0.090600000000     0.095000000000     0          
C232     C      0.000000000000     0.043800000000     0.044000000000     0          
C233     C      0.250000000000     0.094000000000     0.250000000000     0          
C234     C      0.750000000000     0.406000000000     0.250000000000     0          
C235     C      0.750000000000     0.594000000000     0.750000000000     0          
C236     C      0.250000000000     0.906000000000     0.750000000000     0          
C237     C      0.750000000000     0.906000000000     0.750000000000     0          
C238     C      0.250000000000     0.406000000000     0.250000000000     0          
C239     C      0.250000000000     0.594000000000     0.750000000000     0          
C240     C      0.750000000000     0.094000000000     0.250000000000     0          


