data_FIPFES

_audit_creation_method RASPA-1.0
_audit_creation_date 2020-11-2
_audit_author_name 'Rocio Bueno-Perez'

_cell_length_a    15.519
_cell_length_b    15.519
_cell_length_c    15.519
_cell_angle_alpha 90
_cell_angle_beta  90
_cell_angle_gamma 90
_cell_volume      3737.59

_symmetry_cell_setting          triclinic
_symmetry_space_group_name_Hall 'P 1'
_symmetry_space_group_name_H-M  'P 1'
_symmetry_Int_Tables_number     1

_symmetry_equiv_pos_as_xyz 'x,y,z'

loop_
_atom_site_label
_atom_site_type_symbol
_atom_site_fract_x
_atom_site_fract_y
_atom_site_fract_z
_atom_site_charge
C1       C      0.458000000000     0.243800000000     0.149400000000     0          
H2       H      0.433300000000     0.299700000000     0.139600000000     0          
C3       C      0.454000000000     0.176600000000     0.089000000000     0          
H4       H      0.418400000000     0.186000000000     0.039000000000     0          
C5       C      0.542000000000     0.756200000000     0.149400000000     0          
H6       H      0.566700000000     0.700300000000     0.139600000000     0          
C7       C      0.546000000000     0.823400000000     0.089000000000     0          
H8       H      0.581600000000     0.814000000000     0.039000000000     0          
C9       C      0.458000000000     0.756200000000     0.850600000000     0          
H10      H      0.433300000000     0.700300000000     0.860400000000     0          
C11      C      0.454000000000     0.823400000000     0.911000000000     0          
H12      H      0.418400000000     0.814000000000     0.961000000000     0          
C13      C      0.149400000000     0.542000000000     0.756200000000     0          
H14      H      0.139600000000     0.566700000000     0.700300000000     0          
C15      C      0.089000000000     0.546000000000     0.823400000000     0          
H16      H      0.039000000000     0.581600000000     0.814000000000     0          
C17      C      0.850600000000     0.458000000000     0.756200000000     0          
H18      H      0.860400000000     0.433300000000     0.700300000000     0          
C19      C      0.911000000000     0.454000000000     0.823400000000     0          
H20      H      0.961000000000     0.418400000000     0.814000000000     0          
C21      C      0.756200000000     0.149400000000     0.542000000000     0          
H22      H      0.700300000000     0.139600000000     0.566700000000     0          
C23      C      0.823400000000     0.089000000000     0.546000000000     0          
H24      H      0.814000000000     0.039000000000     0.581600000000     0          
C25      C      0.756200000000     0.850600000000     0.458000000000     0          
H26      H      0.700300000000     0.860400000000     0.433300000000     0          
C27      C      0.823400000000     0.911000000000     0.454000000000     0          
H28      H      0.814000000000     0.961000000000     0.418400000000     0          
C29      C      0.243800000000     0.458000000000     0.850600000000     0          
H30      H      0.299700000000     0.433300000000     0.860400000000     0          
C31      C      0.176600000000     0.454000000000     0.911000000000     0          
H32      H      0.186000000000     0.418400000000     0.961000000000     0          
C33      C      0.756200000000     0.542000000000     0.850600000000     0          
H34      H      0.700300000000     0.566700000000     0.860400000000     0          
C35      C      0.823400000000     0.546000000000     0.911000000000     0          
H36      H      0.814000000000     0.581600000000     0.961000000000     0          
C37      C      0.542000000000     0.149400000000     0.243800000000     0          
H38      H      0.566700000000     0.139600000000     0.299700000000     0          
C39      C      0.546000000000     0.089000000000     0.176600000000     0          
H40      H      0.581600000000     0.039000000000     0.186000000000     0          
C41      C      0.542000000000     0.850600000000     0.756200000000     0          
H42      H      0.566700000000     0.860400000000     0.700300000000     0          
C43      C      0.546000000000     0.911000000000     0.823400000000     0          
H44      H      0.581600000000     0.961000000000     0.814000000000     0          
C45      C      0.458000000000     0.850600000000     0.243800000000     0          
H46      H      0.433300000000     0.860400000000     0.299700000000     0          
C47      C      0.454000000000     0.911000000000     0.176600000000     0          
H48      H      0.418400000000     0.961000000000     0.186000000000     0          
C49      C      0.850600000000     0.243800000000     0.458000000000     0          
H50      H      0.860400000000     0.299700000000     0.433300000000     0          
C51      C      0.911000000000     0.176600000000     0.454000000000     0          
H52      H      0.961000000000     0.186000000000     0.418400000000     0          
C53      C      0.850600000000     0.756200000000     0.542000000000     0          
H54      H      0.860400000000     0.700300000000     0.566700000000     0          
C55      C      0.911000000000     0.823400000000     0.546000000000     0          
H56      H      0.961000000000     0.814000000000     0.581600000000     0          
C57      C      0.458000000000     0.243800000000     0.850600000000     0          
H58      H      0.433300000000     0.299700000000     0.860400000000     0          
C59      C      0.454000000000     0.176600000000     0.911000000000     0          
H60      H      0.418400000000     0.186000000000     0.961000000000     0          
C61      C      0.850600000000     0.458000000000     0.243800000000     0          
H62      H      0.860400000000     0.433300000000     0.299700000000     0          
C63      C      0.911000000000     0.454000000000     0.176600000000     0          
H64      H      0.961000000000     0.418400000000     0.186000000000     0          
C65      C      0.149400000000     0.542000000000     0.243800000000     0          
H66      H      0.139600000000     0.566700000000     0.299700000000     0          
C67      C      0.089000000000     0.546000000000     0.176600000000     0          
H68      H      0.039000000000     0.581600000000     0.186000000000     0          
C69      C      0.243800000000     0.850600000000     0.458000000000     0          
H70      H      0.299700000000     0.860400000000     0.433300000000     0          
C71      C      0.176600000000     0.911000000000     0.454000000000     0          
H72      H      0.186000000000     0.961000000000     0.418400000000     0          
C73      C      0.243800000000     0.149400000000     0.542000000000     0          
H74      H      0.299700000000     0.139600000000     0.566700000000     0          
C75      C      0.176600000000     0.089000000000     0.546000000000     0          
H76      H      0.186000000000     0.039000000000     0.581600000000     0          
C77      C      0.756200000000     0.542000000000     0.149400000000     0          
H78      H      0.700300000000     0.566700000000     0.139600000000     0          
C79      C      0.823400000000     0.546000000000     0.089000000000     0          
H80      H      0.814000000000     0.581600000000     0.039000000000     0          
C81      C      0.243800000000     0.458000000000     0.149400000000     0          
H82      H      0.299700000000     0.433300000000     0.139600000000     0          
C83      C      0.176600000000     0.454000000000     0.089000000000     0          
H84      H      0.186000000000     0.418400000000     0.039000000000     0          
C85      C      0.542000000000     0.149400000000     0.756200000000     0          
H86      H      0.566700000000     0.139600000000     0.700300000000     0          
C87      C      0.546000000000     0.089000000000     0.823400000000     0          
H88      H      0.581600000000     0.039000000000     0.814000000000     0          
C89      C      0.149400000000     0.756200000000     0.542000000000     0          
H90      H      0.139600000000     0.700300000000     0.566700000000     0          
C91      C      0.089000000000     0.823400000000     0.546000000000     0          
H92      H      0.039000000000     0.814000000000     0.581600000000     0          
C93      C      0.149400000000     0.243800000000     0.458000000000     0          
H94      H      0.139600000000     0.299700000000     0.433300000000     0          
C95      C      0.089000000000     0.176600000000     0.454000000000     0          
H96      H      0.039000000000     0.186000000000     0.418400000000     0          
Zr97     Zr     0.500000000000     0.339870000000     0.500000000000     0          
Zr98     Zr     0.500000000000     0.660130000000     0.500000000000     0          
Zr99     Zr     0.500000000000     0.500000000000     0.339870000000     0          
Zr100    Zr     0.500000000000     0.500000000000     0.660130000000     0          
Zr101    Zr     0.339870000000     0.500000000000     0.500000000000     0          
Zr102    Zr     0.660130000000     0.500000000000     0.500000000000     0          
Fe103    Fe     0.500000000000     0.000000000000     0.000000000000     0          
Fe104    Fe     0.000000000000     0.500000000000     0.000000000000     0          
Fe105    Fe     0.000000000000     0.000000000000     0.500000000000     0          
I106     I      0.691700000000     0.000000000000     0.000000000000     0          
I107     I      0.308300000000     0.000000000000     0.000000000000     0          
I108     I      0.000000000000     0.691700000000     0.000000000000     0          
I109     I      0.000000000000     0.308300000000     0.000000000000     0          
I110     I      0.000000000000     0.000000000000     0.691700000000     0          
I111     I      0.000000000000     0.000000000000     0.308300000000     0          
O112     O      0.500000000000     0.268300000000     0.375700000000     0          
O113     O      0.500000000000     0.731700000000     0.375700000000     0          
O114     O      0.500000000000     0.268300000000     0.624300000000     0          
O115     O      0.500000000000     0.731700000000     0.624300000000     0          
O116     O      0.375700000000     0.500000000000     0.268300000000     0          
O117     O      0.375700000000     0.500000000000     0.731700000000     0          
O118     O      0.624300000000     0.500000000000     0.268300000000     0          
O119     O      0.624300000000     0.500000000000     0.731700000000     0          
O120     O      0.268300000000     0.375700000000     0.500000000000     0          
O121     O      0.731700000000     0.375700000000     0.500000000000     0          
O122     O      0.268300000000     0.624300000000     0.500000000000     0          
O123     O      0.731700000000     0.624300000000     0.500000000000     0          
O124     O      0.268300000000     0.500000000000     0.624300000000     0          
O125     O      0.731700000000     0.500000000000     0.624300000000     0          
O126     O      0.268300000000     0.500000000000     0.375700000000     0          
O127     O      0.731700000000     0.500000000000     0.375700000000     0          
O128     O      0.500000000000     0.375700000000     0.731700000000     0          
O129     O      0.500000000000     0.375700000000     0.268300000000     0          
O130     O      0.500000000000     0.624300000000     0.731700000000     0          
O131     O      0.500000000000     0.624300000000     0.268300000000     0          
O132     O      0.375700000000     0.268300000000     0.500000000000     0          
O133     O      0.375700000000     0.731700000000     0.500000000000     0          
O134     O      0.624300000000     0.268300000000     0.500000000000     0          
O135     O      0.624300000000     0.731700000000     0.500000000000     0          
O136     O      0.581300000000     0.418700000000     0.581300000000     0          
O137     O      0.418700000000     0.581300000000     0.581300000000     0          
O138     O      0.418700000000     0.418700000000     0.418700000000     0          
O139     O      0.581300000000     0.581300000000     0.418700000000     0          
O140     O      0.418700000000     0.581300000000     0.418700000000     0          
O141     O      0.581300000000     0.418700000000     0.418700000000     0          
O142     O      0.418700000000     0.418700000000     0.581300000000     0          
O143     O      0.581300000000     0.581300000000     0.581300000000     0          
C144     C      0.500000000000     0.296000000000     0.296000000000     0          
N145     N      0.500000000000     0.099600000000     0.099600000000     0          
C146     C      0.500000000000     0.228800000000     0.228800000000     0          
C147     C      0.500000000000     0.704000000000     0.296000000000     0          
N148     N      0.500000000000     0.900400000000     0.099600000000     0          
C149     C      0.500000000000     0.771200000000     0.228800000000     0          
C150     C      0.500000000000     0.296000000000     0.704000000000     0          
N151     N      0.500000000000     0.099600000000     0.900400000000     0          
C152     C      0.500000000000     0.228800000000     0.771200000000     0          
C153     C      0.500000000000     0.704000000000     0.704000000000     0          
N154     N      0.500000000000     0.900400000000     0.900400000000     0          
C155     C      0.500000000000     0.771200000000     0.771200000000     0          
C156     C      0.296000000000     0.500000000000     0.296000000000     0          
N157     N      0.099600000000     0.500000000000     0.099600000000     0          
C158     C      0.228800000000     0.500000000000     0.228800000000     0          
C159     C      0.296000000000     0.500000000000     0.704000000000     0          
N160     N      0.099600000000     0.500000000000     0.900400000000     0          
C161     C      0.228800000000     0.500000000000     0.771200000000     0          
C162     C      0.704000000000     0.500000000000     0.296000000000     0          
N163     N      0.900400000000     0.500000000000     0.099600000000     0          
C164     C      0.771200000000     0.500000000000     0.228800000000     0          
C165     C      0.704000000000     0.500000000000     0.704000000000     0          
N166     N      0.900400000000     0.500000000000     0.900400000000     0          
C167     C      0.771200000000     0.500000000000     0.771200000000     0          
C168     C      0.296000000000     0.296000000000     0.500000000000     0          
N169     N      0.099600000000     0.099600000000     0.500000000000     0          
C170     C      0.228800000000     0.228800000000     0.500000000000     0          
C171     C      0.704000000000     0.296000000000     0.500000000000     0          
N172     N      0.900400000000     0.099600000000     0.500000000000     0          
C173     C      0.771200000000     0.228800000000     0.500000000000     0          
C174     C      0.296000000000     0.704000000000     0.500000000000     0          
N175     N      0.099600000000     0.900400000000     0.500000000000     0          
C176     C      0.228800000000     0.771200000000     0.500000000000     0          
C177     C      0.704000000000     0.704000000000     0.500000000000     0          
N178     N      0.900400000000     0.900400000000     0.500000000000     0          
C179     C      0.771200000000     0.771200000000     0.500000000000     0          


