data_JOZWUS

_audit_creation_method RASPA-1.0
_audit_creation_date 2020-11-2
_audit_author_name 'Rocio Bueno-Perez'

_cell_length_a    25.3669
_cell_length_b    25.3669
_cell_length_c    25.3669
_cell_angle_alpha 90
_cell_angle_beta  90
_cell_angle_gamma 90
_cell_volume      16323.1

_symmetry_cell_setting          triclinic
_symmetry_space_group_name_Hall 'P 1'
_symmetry_space_group_name_H-M  'P 1'
_symmetry_Int_Tables_number     1

_symmetry_equiv_pos_as_xyz 'x,y,z'

loop_
_atom_site_label
_atom_site_type_symbol
_atom_site_fract_x
_atom_site_fract_y
_atom_site_fract_z
_atom_site_charge
C1       C      0.638100000000     0.675200000000     0.958000000000     0          
H2       H      0.613200000000     0.675000000000     0.929500000000     0          
C3       C      0.679200000000     0.714700000000     0.961800000000     0          
H4       H      0.679900000000     0.741700000000     0.935300000000     0          
C5       C      0.361900000000     0.324800000000     0.958000000000     0          
H6       H      0.386800000000     0.325000000000     0.929500000000     0          
C7       C      0.320800000000     0.285300000000     0.961800000000     0          
H8       H      0.320100000000     0.258300000000     0.935300000000     0          
C9       C      0.638100000000     0.324800000000     0.042000000000     0          
H10      H      0.613200000000     0.325000000000     0.070500000000     0          
C11      C      0.679200000000     0.285300000000     0.038200000000     0          
H12      H      0.679900000000     0.258300000000     0.064700000000     0          
C13      C      0.958000000000     0.638100000000     0.675200000000     0          
H14      H      0.929500000000     0.613200000000     0.675000000000     0          
C15      C      0.961800000000     0.679200000000     0.714700000000     0          
H16      H      0.935300000000     0.679900000000     0.741700000000     0          
C17      C      0.324800000000     0.958000000000     0.361900000000     0          
H18      H      0.325000000000     0.929500000000     0.386800000000     0          
C19      C      0.285300000000     0.961800000000     0.320800000000     0          
H20      H      0.258300000000     0.935300000000     0.320100000000     0          
C21      C      0.324800000000     0.042000000000     0.638100000000     0          
H22      H      0.325000000000     0.070500000000     0.613200000000     0          
C23      C      0.285300000000     0.038200000000     0.679200000000     0          
H24      H      0.258300000000     0.064700000000     0.679900000000     0          
C25      C      0.675200000000     0.638100000000     0.042000000000     0          
H26      H      0.675000000000     0.613200000000     0.070500000000     0          
C27      C      0.714700000000     0.679200000000     0.038200000000     0          
H28      H      0.741700000000     0.679900000000     0.064700000000     0          
C29      C      0.324800000000     0.361900000000     0.042000000000     0          
H30      H      0.325000000000     0.386800000000     0.070500000000     0          
C31      C      0.285300000000     0.320800000000     0.038200000000     0          
H32      H      0.258300000000     0.320100000000     0.064700000000     0          
C33      C      0.675200000000     0.361900000000     0.958000000000     0          
H34      H      0.675000000000     0.386800000000     0.929500000000     0          
C35      C      0.714700000000     0.320800000000     0.961800000000     0          
H36      H      0.741700000000     0.320100000000     0.935300000000     0          
C37      C      0.361900000000     0.958000000000     0.675200000000     0          
H38      H      0.386800000000     0.929500000000     0.675000000000     0          
C39      C      0.320800000000     0.961800000000     0.714700000000     0          
H40      H      0.320100000000     0.935300000000     0.741700000000     0          
C41      C      0.361900000000     0.042000000000     0.324800000000     0          
H42      H      0.386800000000     0.070500000000     0.325000000000     0          
C43      C      0.320800000000     0.038200000000     0.285300000000     0          
H44      H      0.320100000000     0.064700000000     0.258300000000     0          
C45      C      0.042000000000     0.675200000000     0.638100000000     0          
H46      H      0.070500000000     0.675000000000     0.613200000000     0          
C47      C      0.038200000000     0.714700000000     0.679200000000     0          
H48      H      0.064700000000     0.741700000000     0.679900000000     0          
C49      C      0.361900000000     0.675200000000     0.958000000000     0          
H50      H      0.386800000000     0.675000000000     0.929500000000     0          
C51      C      0.320800000000     0.714700000000     0.961800000000     0          
H52      H      0.320100000000     0.741700000000     0.935300000000     0          
C53      C      0.042000000000     0.361900000000     0.324800000000     0          
H54      H      0.070500000000     0.386800000000     0.325000000000     0          
C55      C      0.038200000000     0.320800000000     0.285300000000     0          
H56      H      0.064700000000     0.320100000000     0.258300000000     0          
C57      C      0.958000000000     0.638100000000     0.324800000000     0          
H58      H      0.929500000000     0.613200000000     0.325000000000     0          
C59      C      0.961800000000     0.679200000000     0.285300000000     0          
H60      H      0.935300000000     0.679900000000     0.258300000000     0          
C61      C      0.958000000000     0.361900000000     0.675200000000     0          
H62      H      0.929500000000     0.386800000000     0.675000000000     0          
C63      C      0.961800000000     0.320800000000     0.714700000000     0          
H64      H      0.935300000000     0.320100000000     0.741700000000     0          
C65      C      0.675200000000     0.042000000000     0.638100000000     0          
H66      H      0.675000000000     0.070500000000     0.613200000000     0          
C67      C      0.714700000000     0.038200000000     0.679200000000     0          
H68      H      0.741700000000     0.064700000000     0.679900000000     0          
C69      C      0.675200000000     0.958000000000     0.361900000000     0          
H70      H      0.675000000000     0.929500000000     0.386800000000     0          
C71      C      0.714700000000     0.961800000000     0.320800000000     0          
H72      H      0.741700000000     0.935300000000     0.320100000000     0          
C73      C      0.324800000000     0.638100000000     0.042000000000     0          
H74      H      0.325000000000     0.613200000000     0.070500000000     0          
C75      C      0.285300000000     0.679200000000     0.038200000000     0          
H76      H      0.258300000000     0.679900000000     0.064700000000     0          
C77      C      0.638100000000     0.042000000000     0.324800000000     0          
H78      H      0.613200000000     0.070500000000     0.325000000000     0          
C79      C      0.679200000000     0.038200000000     0.285300000000     0          
H80      H      0.679900000000     0.064700000000     0.258300000000     0          
C81      C      0.638100000000     0.958000000000     0.675200000000     0          
H82      H      0.613200000000     0.929500000000     0.675000000000     0          
C83      C      0.679200000000     0.961800000000     0.714700000000     0          
H84      H      0.679900000000     0.935300000000     0.741700000000     0          
C85      C      0.042000000000     0.324800000000     0.638100000000     0          
H86      H      0.070500000000     0.325000000000     0.613200000000     0          
C87      C      0.038200000000     0.285300000000     0.679200000000     0          
H88      H      0.064700000000     0.258300000000     0.679900000000     0          
C89      C      0.042000000000     0.675200000000     0.361900000000     0          
H90      H      0.070500000000     0.675000000000     0.386800000000     0          
C91      C      0.038200000000     0.714700000000     0.320800000000     0          
H92      H      0.064700000000     0.741700000000     0.320100000000     0          
C93      C      0.958000000000     0.324800000000     0.361900000000     0          
H94      H      0.929500000000     0.325000000000     0.386800000000     0          
C95      C      0.961800000000     0.285300000000     0.320800000000     0          
H96      H      0.935300000000     0.258300000000     0.320100000000     0          
Zr97     Zr     0.000000000000     0.902180000000     0.000000000000     0          
Zr98     Zr     0.000000000000     0.097820000000     0.000000000000     0          
Zr99     Zr     0.000000000000     0.000000000000     0.902180000000     0          
Zr100    Zr     0.000000000000     0.000000000000     0.097820000000     0          
Zr101    Zr     0.902180000000     0.000000000000     0.000000000000     0          
Zr102    Zr     0.097820000000     0.000000000000     0.000000000000     0          
Co103    Co     0.500000000000     0.500000000000     0.000000000000     0          
Co104    Co     0.000000000000     0.500000000000     0.500000000000     0          
Co105    Co     0.500000000000     0.000000000000     0.500000000000     0          
O106     O      0.951570000000     0.951570000000     0.951570000000     0          
O107     O      0.048430000000     0.048430000000     0.951570000000     0          
O108     O      0.048430000000     0.951570000000     0.048430000000     0          
O109     O      0.951570000000     0.048430000000     0.048430000000     0          
O110     O      0.951570000000     0.951570000000     0.048430000000     0          
O111     O      0.048430000000     0.048430000000     0.048430000000     0          
O112     O      0.951570000000     0.048430000000     0.951570000000     0          
O113     O      0.048430000000     0.951570000000     0.951570000000     0          
O114     O      0.923790000000     0.859080000000     0.000000000000     0          
C115     C      0.846700000000     0.781400000000     0.000000000000     0          
H116     H      0.882000000000     0.771300000000     0.000000000000     0          
C117     C      0.807000000000     0.742600000000     0.000000000000     0          
H118     H      0.816400000000     0.707200000000     0.000000000000     0          
C119     C      0.610000000000     0.543300000000     0.000000000000     0          
C120     C      0.664000000000     0.526900000000     0.000000000000     0          
H121     H      0.693500000000     0.548800000000     0.000000000000     0          
O122     O      0.076210000000     0.140920000000     0.000000000000     0          
C123     C      0.153300000000     0.218600000000     0.000000000000     0          
H124     H      0.118000000000     0.228700000000     0.000000000000     0          
C125     C      0.193000000000     0.257400000000     0.000000000000     0          
H126     H      0.183600000000     0.292800000000     0.000000000000     0          
C127     C      0.390000000000     0.456700000000     0.000000000000     0          
C128     C      0.336000000000     0.473100000000     0.000000000000     0          
H129     H      0.306500000000     0.451200000000     0.000000000000     0          
O130     O      0.076210000000     0.859080000000     0.000000000000     0          
C131     C      0.153300000000     0.781400000000     0.000000000000     0          
H132     H      0.118000000000     0.771300000000     0.000000000000     0          
C133     C      0.193000000000     0.742600000000     0.000000000000     0          
H134     H      0.183600000000     0.707200000000     0.000000000000     0          
C135     C      0.390000000000     0.543300000000     0.000000000000     0          
C136     C      0.336000000000     0.526900000000     0.000000000000     0          
H137     H      0.306500000000     0.548800000000     0.000000000000     0          
O138     O      0.923790000000     0.140920000000     0.000000000000     0          
C139     C      0.846700000000     0.218600000000     0.000000000000     0          
H140     H      0.882000000000     0.228700000000     0.000000000000     0          
C141     C      0.807000000000     0.257400000000     0.000000000000     0          
H142     H      0.816400000000     0.292800000000     0.000000000000     0          
C143     C      0.610000000000     0.456700000000     0.000000000000     0          
C144     C      0.664000000000     0.473100000000     0.000000000000     0          
H145     H      0.693500000000     0.451200000000     0.000000000000     0          
O146     O      0.000000000000     0.923790000000     0.859080000000     0          
C147     C      0.000000000000     0.846700000000     0.781400000000     0          
H148     H      0.000000000000     0.882000000000     0.771300000000     0          
C149     C      0.000000000000     0.807000000000     0.742600000000     0          
H150     H      0.000000000000     0.816400000000     0.707200000000     0          
C151     C      0.000000000000     0.610000000000     0.543300000000     0          
C152     C      0.000000000000     0.664000000000     0.526900000000     0          
H153     H      0.000000000000     0.693500000000     0.548800000000     0          
O154     O      0.000000000000     0.076210000000     0.140920000000     0          
C155     C      0.000000000000     0.153300000000     0.218600000000     0          
H156     H      0.000000000000     0.118000000000     0.228700000000     0          
C157     C      0.000000000000     0.193000000000     0.257400000000     0          
H158     H      0.000000000000     0.183600000000     0.292800000000     0          
C159     C      0.000000000000     0.390000000000     0.456700000000     0          
C160     C      0.000000000000     0.336000000000     0.473100000000     0          
H161     H      0.000000000000     0.306500000000     0.451200000000     0          
O162     O      0.000000000000     0.076210000000     0.859080000000     0          
C163     C      0.000000000000     0.153300000000     0.781400000000     0          
H164     H      0.000000000000     0.118000000000     0.771300000000     0          
C165     C      0.000000000000     0.193000000000     0.742600000000     0          
H166     H      0.000000000000     0.183600000000     0.707200000000     0          
C167     C      0.000000000000     0.390000000000     0.543300000000     0          
C168     C      0.000000000000     0.336000000000     0.526900000000     0          
H169     H      0.000000000000     0.306500000000     0.548800000000     0          
O170     O      0.000000000000     0.923790000000     0.140920000000     0          
C171     C      0.000000000000     0.846700000000     0.218600000000     0          
H172     H      0.000000000000     0.882000000000     0.228700000000     0          
C173     C      0.000000000000     0.807000000000     0.257400000000     0          
H174     H      0.000000000000     0.816400000000     0.292800000000     0          
C175     C      0.000000000000     0.610000000000     0.456700000000     0          
C176     C      0.000000000000     0.664000000000     0.473100000000     0          
H177     H      0.000000000000     0.693500000000     0.451200000000     0          
O178     O      0.859080000000     0.000000000000     0.923790000000     0          
C179     C      0.781400000000     0.000000000000     0.846700000000     0          
H180     H      0.771300000000     0.000000000000     0.882000000000     0          
C181     C      0.742600000000     0.000000000000     0.807000000000     0          
H182     H      0.707200000000     0.000000000000     0.816400000000     0          
C183     C      0.543300000000     0.000000000000     0.610000000000     0          
C184     C      0.526900000000     0.000000000000     0.664000000000     0          
H185     H      0.548800000000     0.000000000000     0.693500000000     0          
O186     O      0.140920000000     0.000000000000     0.076210000000     0          
C187     C      0.218600000000     0.000000000000     0.153300000000     0          
H188     H      0.228700000000     0.000000000000     0.118000000000     0          
C189     C      0.257400000000     0.000000000000     0.193000000000     0          
H190     H      0.292800000000     0.000000000000     0.183600000000     0          
C191     C      0.456700000000     0.000000000000     0.390000000000     0          
C192     C      0.473100000000     0.000000000000     0.336000000000     0          
H193     H      0.451200000000     0.000000000000     0.306500000000     0          
O194     O      0.859080000000     0.000000000000     0.076210000000     0          
C195     C      0.781400000000     0.000000000000     0.153300000000     0          
H196     H      0.771300000000     0.000000000000     0.118000000000     0          
C197     C      0.742600000000     0.000000000000     0.193000000000     0          
H198     H      0.707200000000     0.000000000000     0.183600000000     0          
C199     C      0.543300000000     0.000000000000     0.390000000000     0          
C200     C      0.526900000000     0.000000000000     0.336000000000     0          
H201     H      0.548800000000     0.000000000000     0.306500000000     0          
O202     O      0.140920000000     0.000000000000     0.923790000000     0          
C203     C      0.218600000000     0.000000000000     0.846700000000     0          
H204     H      0.228700000000     0.000000000000     0.882000000000     0          
C205     C      0.257400000000     0.000000000000     0.807000000000     0          
H206     H      0.292800000000     0.000000000000     0.816400000000     0          
C207     C      0.456700000000     0.000000000000     0.610000000000     0          
C208     C      0.473100000000     0.000000000000     0.664000000000     0          
H209     H      0.451200000000     0.000000000000     0.693500000000     0          
O210     O      0.859080000000     0.923790000000     0.000000000000     0          
C211     C      0.781400000000     0.846700000000     0.000000000000     0          
H212     H      0.771300000000     0.882000000000     0.000000000000     0          
C213     C      0.742600000000     0.807000000000     0.000000000000     0          
H214     H      0.707200000000     0.816400000000     0.000000000000     0          
C215     C      0.543300000000     0.610000000000     0.000000000000     0          
C216     C      0.526900000000     0.664000000000     0.000000000000     0          
H217     H      0.548800000000     0.693500000000     0.000000000000     0          
O218     O      0.140920000000     0.076210000000     0.000000000000     0          
C219     C      0.218600000000     0.153300000000     0.000000000000     0          
H220     H      0.228700000000     0.118000000000     0.000000000000     0          
C221     C      0.257400000000     0.193000000000     0.000000000000     0          
H222     H      0.292800000000     0.183600000000     0.000000000000     0          
C223     C      0.456700000000     0.390000000000     0.000000000000     0          
C224     C      0.473100000000     0.336000000000     0.000000000000     0          
H225     H      0.451200000000     0.306500000000     0.000000000000     0          
O226     O      0.859080000000     0.076210000000     0.000000000000     0          
C227     C      0.781400000000     0.153300000000     0.000000000000     0          
H228     H      0.771300000000     0.118000000000     0.000000000000     0          
C229     C      0.742600000000     0.193000000000     0.000000000000     0          
H230     H      0.707200000000     0.183600000000     0.000000000000     0          
C231     C      0.543300000000     0.390000000000     0.000000000000     0          
C232     C      0.526900000000     0.336000000000     0.000000000000     0          
H233     H      0.548800000000     0.306500000000     0.000000000000     0          
O234     O      0.140920000000     0.923790000000     0.000000000000     0          
C235     C      0.218600000000     0.846700000000     0.000000000000     0          
H236     H      0.228700000000     0.882000000000     0.000000000000     0          
C237     C      0.257400000000     0.807000000000     0.000000000000     0          
H238     H      0.292800000000     0.816400000000     0.000000000000     0          
C239     C      0.456700000000     0.610000000000     0.000000000000     0          
C240     C      0.473100000000     0.664000000000     0.000000000000     0          
H241     H      0.451200000000     0.693500000000     0.000000000000     0          
O242     O      0.923790000000     0.000000000000     0.140920000000     0          
C243     C      0.846700000000     0.000000000000     0.218600000000     0          
H244     H      0.882000000000     0.000000000000     0.228700000000     0          
C245     C      0.807000000000     0.000000000000     0.257400000000     0          
H246     H      0.816400000000     0.000000000000     0.292800000000     0          
C247     C      0.610000000000     0.000000000000     0.456700000000     0          
C248     C      0.664000000000     0.000000000000     0.473100000000     0          
H249     H      0.693500000000     0.000000000000     0.451200000000     0          
O250     O      0.076210000000     0.000000000000     0.859080000000     0          
C251     C      0.153300000000     0.000000000000     0.781400000000     0          
H252     H      0.118000000000     0.000000000000     0.771300000000     0          
C253     C      0.193000000000     0.000000000000     0.742600000000     0          
H254     H      0.183600000000     0.000000000000     0.707200000000     0          
C255     C      0.390000000000     0.000000000000     0.543300000000     0          
C256     C      0.336000000000     0.000000000000     0.526900000000     0          
H257     H      0.306500000000     0.000000000000     0.548800000000     0          
O258     O      0.076210000000     0.000000000000     0.140920000000     0          
C259     C      0.153300000000     0.000000000000     0.218600000000     0          
H260     H      0.118000000000     0.000000000000     0.228700000000     0          
C261     C      0.193000000000     0.000000000000     0.257400000000     0          
H262     H      0.183600000000     0.000000000000     0.292800000000     0          
C263     C      0.390000000000     0.000000000000     0.456700000000     0          
C264     C      0.336000000000     0.000000000000     0.473100000000     0          
H265     H      0.306500000000     0.000000000000     0.451200000000     0          
O266     O      0.923790000000     0.000000000000     0.859080000000     0          
C267     C      0.846700000000     0.000000000000     0.781400000000     0          
H268     H      0.882000000000     0.000000000000     0.771300000000     0          
C269     C      0.807000000000     0.000000000000     0.742600000000     0          
H270     H      0.816400000000     0.000000000000     0.707200000000     0          
C271     C      0.610000000000     0.000000000000     0.543300000000     0          
C272     C      0.664000000000     0.000000000000     0.526900000000     0          
H273     H      0.693500000000     0.000000000000     0.548800000000     0          
O274     O      0.000000000000     0.859080000000     0.076210000000     0          
C275     C      0.000000000000     0.781400000000     0.153300000000     0          
H276     H      0.000000000000     0.771300000000     0.118000000000     0          
C277     C      0.000000000000     0.742600000000     0.193000000000     0          
H278     H      0.000000000000     0.707200000000     0.183600000000     0          
C279     C      0.000000000000     0.543300000000     0.390000000000     0          
C280     C      0.000000000000     0.526900000000     0.336000000000     0          
H281     H      0.000000000000     0.548800000000     0.306500000000     0          
O282     O      0.000000000000     0.140920000000     0.923790000000     0          
C283     C      0.000000000000     0.218600000000     0.846700000000     0          
H284     H      0.000000000000     0.228700000000     0.882000000000     0          
C285     C      0.000000000000     0.257400000000     0.807000000000     0          
H286     H      0.000000000000     0.292800000000     0.816400000000     0          
C287     C      0.000000000000     0.456700000000     0.610000000000     0          
C288     C      0.000000000000     0.473100000000     0.664000000000     0          
H289     H      0.000000000000     0.451200000000     0.693500000000     0          
O290     O      0.000000000000     0.859080000000     0.923790000000     0          
C291     C      0.000000000000     0.781400000000     0.846700000000     0          
H292     H      0.000000000000     0.771300000000     0.882000000000     0          
C293     C      0.000000000000     0.742600000000     0.807000000000     0          
H294     H      0.000000000000     0.707200000000     0.816400000000     0          
C295     C      0.000000000000     0.543300000000     0.610000000000     0          
C296     C      0.000000000000     0.526900000000     0.664000000000     0          
H297     H      0.000000000000     0.548800000000     0.693500000000     0          
O298     O      0.000000000000     0.140920000000     0.076210000000     0          
C299     C      0.000000000000     0.218600000000     0.153300000000     0          
H300     H      0.000000000000     0.228700000000     0.118000000000     0          
C301     C      0.000000000000     0.257400000000     0.193000000000     0          
H302     H      0.000000000000     0.292800000000     0.183600000000     0          
C303     C      0.000000000000     0.456700000000     0.390000000000     0          
C304     C      0.000000000000     0.473100000000     0.336000000000     0          
H305     H      0.000000000000     0.451200000000     0.306500000000     0          
C306     C      0.875700000000     0.875700000000     0.000000000000     0          
C307     C      0.834000000000     0.834000000000     0.000000000000     0          
C308     C      0.755700000000     0.755700000000     0.000000000000     0          
C309     C      0.717300000000     0.717300000000     0.000000000000     0          
C310     C      0.595100000000     0.595100000000     0.000000000000     0          
C311     C      0.636000000000     0.636000000000     0.000000000000     0          
C312     C      0.124300000000     0.124300000000     0.000000000000     0          
C313     C      0.166000000000     0.166000000000     0.000000000000     0          
C314     C      0.244300000000     0.244300000000     0.000000000000     0          
C315     C      0.282700000000     0.282700000000     0.000000000000     0          
C316     C      0.404900000000     0.404900000000     0.000000000000     0          
C317     C      0.364000000000     0.364000000000     0.000000000000     0          
C318     C      0.124300000000     0.875700000000     0.000000000000     0          
C319     C      0.166000000000     0.834000000000     0.000000000000     0          
C320     C      0.244300000000     0.755700000000     0.000000000000     0          
C321     C      0.282700000000     0.717300000000     0.000000000000     0          
C322     C      0.404900000000     0.595100000000     0.000000000000     0          
C323     C      0.364000000000     0.636000000000     0.000000000000     0          
C324     C      0.875700000000     0.124300000000     0.000000000000     0          
C325     C      0.834000000000     0.166000000000     0.000000000000     0          
C326     C      0.755700000000     0.244300000000     0.000000000000     0          
C327     C      0.717300000000     0.282700000000     0.000000000000     0          
C328     C      0.595100000000     0.404900000000     0.000000000000     0          
C329     C      0.636000000000     0.364000000000     0.000000000000     0          
C330     C      0.000000000000     0.875700000000     0.875700000000     0          
C331     C      0.000000000000     0.834000000000     0.834000000000     0          
C332     C      0.000000000000     0.755700000000     0.755700000000     0          
C333     C      0.000000000000     0.717300000000     0.717300000000     0          
C334     C      0.000000000000     0.595100000000     0.595100000000     0          
C335     C      0.000000000000     0.636000000000     0.636000000000     0          
C336     C      0.000000000000     0.124300000000     0.124300000000     0          
C337     C      0.000000000000     0.166000000000     0.166000000000     0          
C338     C      0.000000000000     0.244300000000     0.244300000000     0          
C339     C      0.000000000000     0.282700000000     0.282700000000     0          
C340     C      0.000000000000     0.404900000000     0.404900000000     0          
C341     C      0.000000000000     0.364000000000     0.364000000000     0          
C342     C      0.000000000000     0.124300000000     0.875700000000     0          
C343     C      0.000000000000     0.166000000000     0.834000000000     0          
C344     C      0.000000000000     0.244300000000     0.755700000000     0          
C345     C      0.000000000000     0.282700000000     0.717300000000     0          
C346     C      0.000000000000     0.404900000000     0.595100000000     0          
C347     C      0.000000000000     0.364000000000     0.636000000000     0          
C348     C      0.000000000000     0.875700000000     0.124300000000     0          
C349     C      0.000000000000     0.834000000000     0.166000000000     0          
C350     C      0.000000000000     0.755700000000     0.244300000000     0          
C351     C      0.000000000000     0.717300000000     0.282700000000     0          
C352     C      0.000000000000     0.595100000000     0.404900000000     0          
C353     C      0.000000000000     0.636000000000     0.364000000000     0          
C354     C      0.875700000000     0.000000000000     0.875700000000     0          
C355     C      0.834000000000     0.000000000000     0.834000000000     0          
C356     C      0.755700000000     0.000000000000     0.755700000000     0          
C357     C      0.717300000000     0.000000000000     0.717300000000     0          
C358     C      0.595100000000     0.000000000000     0.595100000000     0          
C359     C      0.636000000000     0.000000000000     0.636000000000     0          
C360     C      0.124300000000     0.000000000000     0.124300000000     0          
C361     C      0.166000000000     0.000000000000     0.166000000000     0          
C362     C      0.244300000000     0.000000000000     0.244300000000     0          
C363     C      0.282700000000     0.000000000000     0.282700000000     0          
C364     C      0.404900000000     0.000000000000     0.404900000000     0          
C365     C      0.364000000000     0.000000000000     0.364000000000     0          
C366     C      0.875700000000     0.000000000000     0.124300000000     0          
C367     C      0.834000000000     0.000000000000     0.166000000000     0          
C368     C      0.755700000000     0.000000000000     0.244300000000     0          
C369     C      0.717300000000     0.000000000000     0.282700000000     0          
C370     C      0.595100000000     0.000000000000     0.404900000000     0          
C371     C      0.636000000000     0.000000000000     0.364000000000     0          
C372     C      0.124300000000     0.000000000000     0.875700000000     0          
C373     C      0.166000000000     0.000000000000     0.834000000000     0          
C374     C      0.244300000000     0.000000000000     0.755700000000     0          
C375     C      0.282700000000     0.000000000000     0.717300000000     0          
C376     C      0.404900000000     0.000000000000     0.595100000000     0          
C377     C      0.364000000000     0.000000000000     0.636000000000     0          
N378     N      0.577800000000     0.500000000000     0.000000000000     0          
N379     N      0.422200000000     0.500000000000     0.000000000000     0          
N380     N      0.000000000000     0.577800000000     0.500000000000     0          
N381     N      0.000000000000     0.422200000000     0.500000000000     0          
N382     N      0.500000000000     0.000000000000     0.577800000000     0          
N383     N      0.500000000000     0.000000000000     0.422200000000     0          
N384     N      0.500000000000     0.577800000000     0.000000000000     0          
N385     N      0.500000000000     0.422200000000     0.000000000000     0          
N386     N      0.577800000000     0.000000000000     0.500000000000     0          
N387     N      0.422200000000     0.000000000000     0.500000000000     0          
N388     N      0.000000000000     0.500000000000     0.422200000000     0          
N389     N      0.000000000000     0.500000000000     0.577800000000     0          
O390     O      0.500000000000     0.500000000000     0.081600000000     0          
O391     O      0.500000000000     0.500000000000     0.918400000000     0          


