data_MUBZOA

_audit_creation_method RASPA-1.0
_audit_creation_date 2020-11-2
_audit_author_name 'Rocio Bueno-Perez'

_cell_length_a    22.071
_cell_length_b    22.071
_cell_length_c    22.071
_cell_angle_alpha 90
_cell_angle_beta  90
_cell_angle_gamma 90
_cell_volume      10751.4

_symmetry_cell_setting          triclinic
_symmetry_space_group_name_Hall 'P 1'
_symmetry_space_group_name_H-M  'P 1'
_symmetry_Int_Tables_number     1

_symmetry_equiv_pos_as_xyz 'x,y,z'

loop_
_atom_site_label
_atom_site_type_symbol
_atom_site_fract_x
_atom_site_fract_y
_atom_site_fract_z
_atom_site_charge
Zr1      Zr     0.000000000000     0.000020000000     0.887730000000     0          
O2       O      0.055030000000     0.944960000000     0.945000000000     0          
O3       O      0.838430000000     0.999990000000     0.911720000000     0          
O4       O      0.911800000000     0.999920000000     0.838510000000     0          
O5       O      0.088190000000     0.000040000000     0.838330000000     0          
O6       O      0.161840000000     0.000010000000     0.911840000000     0          
C7       C      0.857110000000     0.999870000000     0.857140000000     0          
C8       C      0.143090000000     0.000110000000     0.856920000000     0          
C9       C      0.554590000000     0.999100000000     0.628900000000     0          
C10      C      0.500100000000     0.999200000000     0.660430000000     0          
H11      H      0.500100000000     0.999000000000     0.703000000000     0          
C12      C      0.445510000000     0.999700000000     0.629000000000     0          
C13      C      0.445470000000     0.000100000000     0.566000000000     0          
H14      H      0.408600000000     0.000500000000     0.544700000000     0          
C15      C      0.500000000000     0.000000000000     0.534480000000     0          
C16      C      0.554550000000     0.999400000000     0.565900000000     0          
H17      H      0.591400000000     0.999300000000     0.544600000000     0          
C18      C      0.610000000000     0.999800000000     0.662700000000     0          
C19      C      0.651300000000     0.001300000000     0.695100000000     0          
C20      C      0.799240000000     0.999200000000     0.819300000000     0          
C21      C      0.739700000000     0.000200000000     0.839870000000     0          
H22      H      0.731600000000     0.000000000000     0.881700000000     0          
C23      C      0.692160000000     0.001600000000     0.798600000000     0          
H24      H      0.651900000000     0.002300000000     0.812500000000     0          
C25      C      0.704100000000     0.001900000000     0.736800000000     0          
C26      C      0.763600000000     0.000800000000     0.716200000000     0          
H27      H      0.771700000000     0.001100000000     0.674400000000     0          
C28      C      0.811180000000     0.999500000000     0.757500000000     0          
H29      H      0.851400000000     0.998800000000     0.743500000000     0          
C30      C      0.389500000000     0.001100000000     0.663300000000     0          
C31      C      0.349200000000     0.001400000000     0.693900000000     0          
C32      C      0.201130000000     0.999500000000     0.819900000000     0          
C33      C      0.189200000000     0.999800000000     0.758000000000     0          
H34      H      0.149000000000     0.999300000000     0.744100000000     0          
C35      C      0.236800000000     0.000900000000     0.716800000000     0          
H36      H      0.228800000000     0.001100000000     0.675000000000     0          
C37      C      0.296300000000     0.001700000000     0.737400000000     0          
C38      C      0.308240000000     0.001500000000     0.799300000000     0          
H39      H      0.348500000000     0.002000000000     0.813200000000     0          
C40      C      0.260600000000     0.000400000000     0.840490000000     0          
H41      H      0.268700000000     0.000200000000     0.882300000000     0          
Zr42     Zr     0.887730000000     0.000000000000     0.000020000000     0          
O43      O      0.945000000000     0.055030000000     0.944960000000     0          
O44      O      0.911720000000     0.838430000000     0.999990000000     0          
O45      O      0.838510000000     0.911800000000     0.999920000000     0          
O46      O      0.838330000000     0.088190000000     0.000040000000     0          
O47      O      0.911840000000     0.161840000000     0.000010000000     0          
C48      C      0.857140000000     0.857110000000     0.999870000000     0          
C49      C      0.856920000000     0.143090000000     0.000110000000     0          
C50      C      0.628900000000     0.554590000000     0.999100000000     0          
C51      C      0.660430000000     0.500100000000     0.999200000000     0          
H52      H      0.703000000000     0.500100000000     0.999000000000     0          
C53      C      0.629000000000     0.445510000000     0.999700000000     0          
C54      C      0.566000000000     0.445470000000     0.000100000000     0          
H55      H      0.544700000000     0.408600000000     0.000500000000     0          
C56      C      0.534480000000     0.500000000000     0.000000000000     0          
C57      C      0.565900000000     0.554550000000     0.999400000000     0          
H58      H      0.544600000000     0.591400000000     0.999300000000     0          
C59      C      0.662700000000     0.610000000000     0.999800000000     0          
C60      C      0.695100000000     0.651300000000     0.001300000000     0          
C61      C      0.819300000000     0.799240000000     0.999200000000     0          
C62      C      0.839870000000     0.739700000000     0.000200000000     0          
H63      H      0.881700000000     0.731600000000     0.000000000000     0          
C64      C      0.798600000000     0.692160000000     0.001600000000     0          
H65      H      0.812500000000     0.651900000000     0.002300000000     0          
C66      C      0.736800000000     0.704100000000     0.001900000000     0          
C67      C      0.716200000000     0.763600000000     0.000800000000     0          
H68      H      0.674400000000     0.771700000000     0.001100000000     0          
C69      C      0.757500000000     0.811180000000     0.999500000000     0          
H70      H      0.743500000000     0.851400000000     0.998800000000     0          
C71      C      0.663300000000     0.389500000000     0.001100000000     0          
C72      C      0.693900000000     0.349200000000     0.001400000000     0          
C73      C      0.819900000000     0.201130000000     0.999500000000     0          
C74      C      0.758000000000     0.189200000000     0.999800000000     0          
H75      H      0.744100000000     0.149000000000     0.999300000000     0          
C76      C      0.716800000000     0.236800000000     0.000900000000     0          
H77      H      0.675000000000     0.228800000000     0.001100000000     0          
C78      C      0.737400000000     0.296300000000     0.001700000000     0          
C79      C      0.799300000000     0.308240000000     0.001500000000     0          
H80      H      0.813200000000     0.348500000000     0.002000000000     0          
C81      C      0.840490000000     0.260600000000     0.000400000000     0          
H82      H      0.882300000000     0.268700000000     0.000200000000     0          
Zr83     Zr     0.000020000000     0.887730000000     0.000000000000     0          
O84      O      0.944960000000     0.945000000000     0.055030000000     0          
O85      O      0.999990000000     0.911720000000     0.838430000000     0          
O86      O      0.999920000000     0.838510000000     0.911800000000     0          
O87      O      0.000040000000     0.838330000000     0.088190000000     0          
O88      O      0.000010000000     0.911840000000     0.161840000000     0          
C89      C      0.999870000000     0.857140000000     0.857110000000     0          
C90      C      0.000110000000     0.856920000000     0.143090000000     0          
C91      C      0.999900000000     0.500200000000     0.534680000000     0          
C92      C      0.000700000000     0.445630000000     0.566100000000     0          
H93      H      0.001000000000     0.408800000000     0.544800000000     0          
C94      C      0.001000000000     0.445560000000     0.629100000000     0          
C95      C      0.000500000000     0.500100000000     0.660640000000     0          
H96      H      0.000700000000     0.500000000000     0.703200000000     0          
C97      C      0.999700000000     0.554630000000     0.629200000000     0          
C98      C      0.999400000000     0.554710000000     0.566200000000     0          
H99      H      0.998900000000     0.591600000000     0.545000000000     0          
C100     C      0.998400000000     0.610300000000     0.662700000000     0          
C101     C      0.001900000000     0.651400000000     0.695000000000     0          
C102     C      0.999400000000     0.798870000000     0.819800000000     0          
C103     C      0.999900000000     0.810810000000     0.758000000000     0          
H104     H      0.999600000000     0.851100000000     0.744000000000     0          
C105     C      0.000700000000     0.763200000000     0.716700000000     0          
H106     H      0.001000000000     0.771300000000     0.674900000000     0          
C107     C      0.001000000000     0.703700000000     0.737300000000     0          
C108     C      0.000600000000     0.691770000000     0.799100000000     0          
H109     H      0.000800000000     0.651500000000     0.813000000000     0          
C110     C      0.999800000000     0.739300000000     0.840370000000     0          
H111     H      0.999500000000     0.731300000000     0.882200000000     0          
C112     C      0.998100000000     0.389600000000     0.662500000000     0          
C113     C      0.999700000000     0.348300000000     0.694700000000     0          
C114     C      0.999500000000     0.201140000000     0.819400000000     0          
C115     C      0.999600000000     0.189300000000     0.757600000000     0          
H116     H      0.999300000000     0.149000000000     0.743600000000     0          
C117     C      0.000000000000     0.236900000000     0.716360000000     0          
H118     H      0.000100000000     0.228900000000     0.674500000000     0          
C119     C      0.000400000000     0.296400000000     0.737000000000     0          
C120     C      0.000300000000     0.308260000000     0.798900000000     0          
H121     H      0.000600000000     0.348500000000     0.812800000000     0          
C122     C      0.999900000000     0.260600000000     0.840060000000     0          
H123     H      0.999800000000     0.268700000000     0.881900000000     0          
Zr124    Zr     0.000000000000     0.999980000000     0.112270000000     0          
O125     O      0.944970000000     0.055040000000     0.055000000000     0          
O126     O      0.161570000000     0.000010000000     0.088280000000     0          
O127     O      0.088200000000     0.000080000000     0.161490000000     0          
O128     O      0.911810000000     0.999960000000     0.161670000000     0          
O129     O      0.838160000000     0.999990000000     0.088160000000     0          
C130     C      0.142890000000     0.000130000000     0.142860000000     0          
C131     C      0.856910000000     0.999890000000     0.143080000000     0          
C132     C      0.445410000000     0.000900000000     0.371100000000     0          
C133     C      0.499900000000     0.000800000000     0.339570000000     0          
H134     H      0.499900000000     0.001000000000     0.297000000000     0          
C135     C      0.554490000000     0.000300000000     0.371000000000     0          
C136     C      0.554530000000     0.999900000000     0.434000000000     0          
H137     H      0.591400000000     0.999500000000     0.455300000000     0          
C138     C      0.500000000000     0.000000000000     0.465520000000     0          
C139     C      0.445450000000     0.000600000000     0.434100000000     0          
H140     H      0.408600000000     0.000700000000     0.455400000000     0          
C141     C      0.390000000000     0.000200000000     0.337300000000     0          
C142     C      0.348700000000     0.998700000000     0.304900000000     0          
C143     C      0.200760000000     0.000800000000     0.180700000000     0          
C144     C      0.260300000000     0.999800000000     0.160130000000     0          
H145     H      0.268400000000     0.000000000000     0.118300000000     0          
C146     C      0.307840000000     0.998400000000     0.201400000000     0          
H147     H      0.348100000000     0.997700000000     0.187500000000     0          
C148     C      0.295900000000     0.998100000000     0.263200000000     0          
C149     C      0.236400000000     0.999200000000     0.283800000000     0          
H150     H      0.228300000000     0.998900000000     0.325600000000     0          
C151     C      0.188820000000     0.000500000000     0.242500000000     0          
H152     H      0.148600000000     0.001200000000     0.256500000000     0          
C153     C      0.610500000000     0.998900000000     0.336700000000     0          
C154     C      0.650800000000     0.998600000000     0.306100000000     0          
C155     C      0.798870000000     0.000500000000     0.180100000000     0          
C156     C      0.810800000000     0.000200000000     0.242000000000     0          
H157     H      0.851000000000     0.000700000000     0.255900000000     0          
C158     C      0.763200000000     0.999100000000     0.283200000000     0          
H159     H      0.771200000000     0.998900000000     0.325000000000     0          
C160     C      0.703700000000     0.998300000000     0.262600000000     0          
C161     C      0.691760000000     0.998500000000     0.200700000000     0          
H162     H      0.651500000000     0.998000000000     0.186800000000     0          
C163     C      0.739400000000     0.999600000000     0.159510000000     0          
H164     H      0.731300000000     0.999800000000     0.117700000000     0          
Zr165    Zr     0.112270000000     0.000000000000     0.999980000000     0          
O166     O      0.055000000000     0.944970000000     0.055040000000     0          
O167     O      0.088280000000     0.161570000000     0.000010000000     0          
O168     O      0.161490000000     0.088200000000     0.000080000000     0          
O169     O      0.161670000000     0.911810000000     0.999960000000     0          
O170     O      0.088160000000     0.838160000000     0.999990000000     0          
C171     C      0.142860000000     0.142890000000     0.000130000000     0          
C172     C      0.143080000000     0.856910000000     0.999890000000     0          
C173     C      0.371100000000     0.445410000000     0.000900000000     0          
C174     C      0.339570000000     0.499900000000     0.000800000000     0          
H175     H      0.297000000000     0.499900000000     0.001000000000     0          
C176     C      0.371000000000     0.554490000000     0.000300000000     0          
C177     C      0.434000000000     0.554530000000     0.999900000000     0          
H178     H      0.455300000000     0.591400000000     0.999500000000     0          
C179     C      0.465520000000     0.500000000000     0.000000000000     0          
C180     C      0.434100000000     0.445450000000     0.000600000000     0          
H181     H      0.455400000000     0.408600000000     0.000700000000     0          
C182     C      0.337300000000     0.390000000000     0.000200000000     0          
C183     C      0.304900000000     0.348700000000     0.998700000000     0          
C184     C      0.180700000000     0.200760000000     0.000800000000     0          
C185     C      0.160130000000     0.260300000000     0.999800000000     0          
H186     H      0.118300000000     0.268400000000     0.000000000000     0          
C187     C      0.201400000000     0.307840000000     0.998400000000     0          
H188     H      0.187500000000     0.348100000000     0.997700000000     0          
C189     C      0.263200000000     0.295900000000     0.998100000000     0          
C190     C      0.283800000000     0.236400000000     0.999200000000     0          
H191     H      0.325600000000     0.228300000000     0.998900000000     0          
C192     C      0.242500000000     0.188820000000     0.000500000000     0          
H193     H      0.256500000000     0.148600000000     0.001200000000     0          
C194     C      0.336700000000     0.610500000000     0.998900000000     0          
C195     C      0.306100000000     0.650800000000     0.998600000000     0          
C196     C      0.180100000000     0.798870000000     0.000500000000     0          
C197     C      0.242000000000     0.810800000000     0.000200000000     0          
H198     H      0.255900000000     0.851000000000     0.000700000000     0          
C199     C      0.283200000000     0.763200000000     0.999100000000     0          
H200     H      0.325000000000     0.771200000000     0.998900000000     0          
C201     C      0.262600000000     0.703700000000     0.998300000000     0          
C202     C      0.200700000000     0.691760000000     0.998500000000     0          
H203     H      0.186800000000     0.651500000000     0.998000000000     0          
C204     C      0.159510000000     0.739400000000     0.999600000000     0          
H205     H      0.117700000000     0.731300000000     0.999800000000     0          
Zr206    Zr     0.999980000000     0.112270000000     0.000000000000     0          
O207     O      0.055040000000     0.055000000000     0.944970000000     0          
O208     O      0.000010000000     0.088280000000     0.161570000000     0          
O209     O      0.000080000000     0.161490000000     0.088200000000     0          
O210     O      0.999960000000     0.161670000000     0.911810000000     0          
O211     O      0.999990000000     0.088160000000     0.838160000000     0          
C212     C      0.000130000000     0.142860000000     0.142890000000     0          
C213     C      0.999890000000     0.143080000000     0.856910000000     0          
C214     C      0.000100000000     0.499800000000     0.465320000000     0          
C215     C      0.999300000000     0.554370000000     0.433900000000     0          
H216     H      0.999000000000     0.591200000000     0.455200000000     0          
C217     C      0.999000000000     0.554440000000     0.370900000000     0          
C218     C      0.999500000000     0.499900000000     0.339360000000     0          
H219     H      0.999300000000     0.500000000000     0.296800000000     0          
C220     C      0.000300000000     0.445370000000     0.370800000000     0          
C221     C      0.000600000000     0.445290000000     0.433800000000     0          
H222     H      0.001100000000     0.408400000000     0.455000000000     0          
C223     C      0.001600000000     0.389700000000     0.337300000000     0          
C224     C      0.998100000000     0.348600000000     0.305000000000     0          
C225     C      0.000600000000     0.201130000000     0.180200000000     0          
C226     C      0.000100000000     0.189190000000     0.242000000000     0          
H227     H      0.000400000000     0.148900000000     0.256000000000     0          
C228     C      0.999300000000     0.236800000000     0.283300000000     0          
H229     H      0.999000000000     0.228700000000     0.325100000000     0          
C230     C      0.999000000000     0.296300000000     0.262700000000     0          
C231     C      0.999400000000     0.308230000000     0.200900000000     0          
H232     H      0.999200000000     0.348500000000     0.187000000000     0          
C233     C      0.000200000000     0.260700000000     0.159630000000     0          
H234     H      0.000500000000     0.268700000000     0.117800000000     0          
C235     C      0.001900000000     0.610400000000     0.337500000000     0          
C236     C      0.000300000000     0.651700000000     0.305300000000     0          
C237     C      0.000500000000     0.798860000000     0.180600000000     0          
C238     C      0.000400000000     0.810700000000     0.242400000000     0          
H239     H      0.000700000000     0.851000000000     0.256400000000     0          
C240     C      0.000000000000     0.763100000000     0.283640000000     0          
H241     H      0.999900000000     0.771100000000     0.325500000000     0          
C242     C      0.999600000000     0.703600000000     0.263000000000     0          
C243     C      0.999700000000     0.691740000000     0.201100000000     0          
H244     H      0.999400000000     0.651500000000     0.187200000000     0          
C245     C      0.000100000000     0.739400000000     0.159940000000     0          
H246     H      0.000200000000     0.731300000000     0.118100000000     0          
O247     O      0.944820000000     0.944820000000     0.944820000000     0          
O248     O      0.055180000000     0.055180000000     0.055180000000     0          


