data_NEJNUO

_audit_creation_method RASPA-1.0
_audit_creation_date 2020-11-2
_audit_author_name 'Rocio Bueno-Perez'

_cell_length_a    23.0639
_cell_length_b    23.0639
_cell_length_c    18.8246
_cell_angle_alpha 90
_cell_angle_beta  90
_cell_angle_gamma 90
_cell_volume      10013.6

_symmetry_cell_setting          triclinic
_symmetry_space_group_name_Hall 'P 1'
_symmetry_space_group_name_H-M  'P 1'
_symmetry_Int_Tables_number     1

_symmetry_equiv_pos_as_xyz 'x,y,z'

loop_
_atom_site_label
_atom_site_type_symbol
_atom_site_fract_x
_atom_site_fract_y
_atom_site_fract_z
_atom_site_charge
O1       O      0.084700000000     0.392000000000     0.132700000000     0          
O2       O      0.156700000000     0.441600000000     0.072500000000     0          
C3       C      0.261100000000     0.300300000000     0.230500000000     0          
C4       C      0.278000000000     0.335200000000     0.174700000000     0          
C5       C      0.238700000000     0.369800000000     0.138000000000     0          
H6       H      0.251500000000     0.393500000000     0.099800000000     0          
C7       C      0.181400000000     0.369400000000     0.157400000000     0          
C8       C      0.164100000000     0.334700000000     0.212800000000     0          
H9       H      0.124500000000     0.333900000000     0.226600000000     0          
C10      C      0.204100000000     0.300700000000     0.248600000000     0          
C11      C      0.137200000000     0.403700000000     0.116100000000     0          
C12      C      0.020600000000     0.548100000000     0.348900000000     0          
H13      H      0.034700000000     0.580900000000     0.323600000000     0          
C14      C      0.020600000000     0.548100000000     0.422900000000     0          
F15      F      0.204300000000     0.209700000000     0.335300000000     0          
F16      F      0.170700000000     0.296600000000     0.381800000000     0          
F17      F      0.114000000000     0.244700000000     0.302000000000     0          
H18      H      0.317600000000     0.335600000000     0.160900000000     0          
H19      H      0.034700000000     0.580900000000     0.448000000000     0          
C20      C      0.177000000000     0.266400000000     0.307600000000     0          
F21      F      0.609100000000     0.654600000000     0.196900000000     0          
F22      F      0.640000000000     0.717400000000     0.106400000000     0          
F23      F      0.643300000000     0.618200000000     0.089500000000     0          
O24      O      0.915300000000     0.608000000000     0.132700000000     0          
O25      O      0.843300000000     0.558400000000     0.072500000000     0          
C26      C      0.738900000000     0.699700000000     0.230500000000     0          
C27      C      0.722000000000     0.664800000000     0.174700000000     0          
C28      C      0.761300000000     0.630200000000     0.138000000000     0          
H29      H      0.748500000000     0.606500000000     0.099800000000     0          
C30      C      0.818600000000     0.630600000000     0.157400000000     0          
C31      C      0.835900000000     0.665300000000     0.212800000000     0          
H32      H      0.875500000000     0.666100000000     0.226600000000     0          
C33      C      0.795900000000     0.699300000000     0.248600000000     0          
H34      H      0.808600000000     0.722900000000     0.286800000000     0          
C35      C      0.862800000000     0.596300000000     0.116100000000     0          
C36      C      0.660700000000     0.661200000000     0.148300000000     0          
C37      C      0.979400000000     0.451900000000     0.348900000000     0          
H38      H      0.965300000000     0.419100000000     0.323600000000     0          
C39      C      0.979400000000     0.451900000000     0.422900000000     0          
F40      F      0.795700000000     0.790300000000     0.335300000000     0          
F41      F      0.829300000000     0.703400000000     0.381800000000     0          
H42      H      0.965300000000     0.419100000000     0.448000000000     0          
C43      C      0.823000000000     0.733600000000     0.307600000000     0          
F44      F      0.654600000000     0.390900000000     0.696900000000     0          
F45      F      0.717400000000     0.360000000000     0.606400000000     0          
F46      F      0.618200000000     0.356700000000     0.589500000000     0          
O47      O      0.608000000000     0.084700000000     0.632700000000     0          
O48      O      0.558400000000     0.156700000000     0.572500000000     0          
C49      C      0.699700000000     0.261100000000     0.730500000000     0          
C50      C      0.664800000000     0.278000000000     0.674700000000     0          
C51      C      0.630200000000     0.238700000000     0.638000000000     0          
H52      H      0.606500000000     0.251500000000     0.599800000000     0          
C53      C      0.630600000000     0.181400000000     0.657400000000     0          
C54      C      0.665300000000     0.164100000000     0.712800000000     0          
H55      H      0.666100000000     0.124500000000     0.726600000000     0          
C56      C      0.699300000000     0.204100000000     0.748600000000     0          
H57      H      0.722900000000     0.191400000000     0.786800000000     0          
C58      C      0.596300000000     0.137200000000     0.616100000000     0          
C59      C      0.661200000000     0.339300000000     0.648300000000     0          
F60      F      0.345400000000     0.609100000000     0.696900000000     0          
F61      F      0.282600000000     0.640000000000     0.606400000000     0          
F62      F      0.381800000000     0.643300000000     0.589500000000     0          
O63      O      0.392000000000     0.915300000000     0.632700000000     0          
O64      O      0.441600000000     0.843300000000     0.572500000000     0          
C65      C      0.300300000000     0.738900000000     0.730500000000     0          
C66      C      0.335200000000     0.722000000000     0.674700000000     0          
C67      C      0.369800000000     0.761300000000     0.638000000000     0          
H68      H      0.393500000000     0.748500000000     0.599800000000     0          
C69      C      0.369400000000     0.818600000000     0.657400000000     0          
C70      C      0.334700000000     0.835900000000     0.712800000000     0          
H71      H      0.333900000000     0.875500000000     0.726600000000     0          
C72      C      0.300700000000     0.795900000000     0.748600000000     0          
H73      H      0.277100000000     0.808600000000     0.786800000000     0          
C74      C      0.403700000000     0.862800000000     0.616100000000     0          
C75      C      0.338800000000     0.660700000000     0.648300000000     0          
O76      O      0.915300000000     0.392000000000     0.867300000000     0          
O77      O      0.843300000000     0.441600000000     0.927500000000     0          
C78      C      0.738900000000     0.300300000000     0.769500000000     0          
C79      C      0.722000000000     0.335200000000     0.825300000000     0          
C80      C      0.761300000000     0.369800000000     0.862000000000     0          
H81      H      0.748500000000     0.393500000000     0.900200000000     0          
C82      C      0.818600000000     0.369400000000     0.842600000000     0          
C83      C      0.835900000000     0.334700000000     0.787200000000     0          
H84      H      0.875500000000     0.333900000000     0.773400000000     0          
C85      C      0.795900000000     0.300700000000     0.751400000000     0          
C86      C      0.862800000000     0.403700000000     0.883900000000     0          
C87      C      0.979400000000     0.548100000000     0.651100000000     0          
H88      H      0.965300000000     0.580900000000     0.676400000000     0          
C89      C      0.979400000000     0.548100000000     0.577100000000     0          
H90      H      0.887300000000     0.085700000000     0.042500000000     0          
F91      F      0.795700000000     0.209700000000     0.664700000000     0          
F92      F      0.829300000000     0.296600000000     0.618200000000     0          
F93      F      0.886000000000     0.244700000000     0.698000000000     0          
H94      H      0.682400000000     0.335600000000     0.839100000000     0          
H95      H      0.965300000000     0.580900000000     0.552000000000     0          
C96      C      0.823000000000     0.266400000000     0.692400000000     0          
O97      O      0.084700000000     0.608000000000     0.867300000000     0          
O98      O      0.156700000000     0.558400000000     0.927500000000     0          
C99      C      0.261100000000     0.699700000000     0.769500000000     0          
C100     C      0.278000000000     0.664800000000     0.825300000000     0          
C101     C      0.238700000000     0.630200000000     0.862000000000     0          
H102     H      0.251500000000     0.606500000000     0.900200000000     0          
C103     C      0.181400000000     0.630600000000     0.842600000000     0          
C104     C      0.164100000000     0.665300000000     0.787200000000     0          
H105     H      0.124500000000     0.666100000000     0.773400000000     0          
C106     C      0.204100000000     0.699300000000     0.751400000000     0          
C107     C      0.137200000000     0.596300000000     0.883900000000     0          
C108     C      0.020600000000     0.451900000000     0.651100000000     0          
H109     H      0.034700000000     0.419100000000     0.676400000000     0          
C110     C      0.020600000000     0.451900000000     0.577100000000     0          
C111     C      0.043000000000     0.399800000000     0.538100000000     0          
H112     H      0.112700000000     0.914300000000     0.042500000000     0          
F113     F      0.204300000000     0.790300000000     0.664700000000     0          
F114     F      0.170700000000     0.703400000000     0.618200000000     0          
F115     F      0.114000000000     0.755300000000     0.698000000000     0          
H116     H      0.317600000000     0.664400000000     0.839100000000     0          
C117     C      0.177000000000     0.733600000000     0.692400000000     0          
H118     H      0.083600000000     0.393100000000     0.551100000000     0          
H119     H      0.019900000000     0.365800000000     0.551100000000     0          
H120     H      0.040200000000     0.406500000000     0.486900000000     0          
F121     F      0.345400000000     0.390900000000     0.303100000000     0          
F122     F      0.282600000000     0.360000000000     0.393600000000     0          
F123     F      0.381800000000     0.356700000000     0.410500000000     0          
O124     O      0.392000000000     0.084700000000     0.367300000000     0          
O125     O      0.441600000000     0.156700000000     0.427500000000     0          
C126     C      0.300300000000     0.261100000000     0.269500000000     0          
C127     C      0.335200000000     0.278000000000     0.325300000000     0          
C128     C      0.369800000000     0.238700000000     0.362000000000     0          
H129     H      0.393500000000     0.251500000000     0.400200000000     0          
C130     C      0.369400000000     0.181400000000     0.342600000000     0          
C131     C      0.334700000000     0.164100000000     0.287200000000     0          
H132     H      0.333900000000     0.124500000000     0.273400000000     0          
C133     C      0.300700000000     0.204100000000     0.251400000000     0          
H134     H      0.277100000000     0.191400000000     0.213200000000     0          
C135     C      0.403700000000     0.137200000000     0.383900000000     0          
C136     C      0.338800000000     0.339300000000     0.351700000000     0          
H137     H      0.085700000000     0.112700000000     0.542500000000     0          
O138     O      0.608000000000     0.915300000000     0.367300000000     0          
O139     O      0.558400000000     0.843300000000     0.427500000000     0          
C140     C      0.699700000000     0.738900000000     0.269500000000     0          
C141     C      0.664800000000     0.722000000000     0.325300000000     0          
C142     C      0.630200000000     0.761300000000     0.362000000000     0          
H143     H      0.606500000000     0.748500000000     0.400200000000     0          
C144     C      0.630600000000     0.818600000000     0.342600000000     0          
C145     C      0.665300000000     0.835900000000     0.287200000000     0          
H146     H      0.666100000000     0.875500000000     0.273400000000     0          
C147     C      0.699300000000     0.795900000000     0.251400000000     0          
C148     C      0.596300000000     0.862800000000     0.383900000000     0          
H149     H      0.914300000000     0.887300000000     0.542500000000     0          
F150     F      0.790300000000     0.795700000000     0.164700000000     0          
F151     F      0.703400000000     0.829300000000     0.118200000000     0          
F152     F      0.755300000000     0.886000000000     0.198000000000     0          
H153     H      0.664400000000     0.682400000000     0.339100000000     0          
C154     C      0.733600000000     0.823000000000     0.192400000000     0          
F155     F      0.609100000000     0.654600000000     0.803100000000     0          
F156     F      0.640000000000     0.717400000000     0.893600000000     0          
F157     F      0.643300000000     0.618200000000     0.910500000000     0          
O158     O      0.915300000000     0.608000000000     0.867300000000     0          
O159     O      0.843300000000     0.558400000000     0.927500000000     0          
C160     C      0.738900000000     0.699700000000     0.769500000000     0          
C161     C      0.722000000000     0.664800000000     0.825300000000     0          
C162     C      0.761300000000     0.630200000000     0.862000000000     0          
H163     H      0.748500000000     0.606500000000     0.900200000000     0          
C164     C      0.818600000000     0.630600000000     0.842600000000     0          
C165     C      0.835900000000     0.665300000000     0.787200000000     0          
H166     H      0.875500000000     0.666100000000     0.773400000000     0          
C167     C      0.795900000000     0.699300000000     0.751400000000     0          
H168     H      0.808600000000     0.722900000000     0.713200000000     0          
C169     C      0.862800000000     0.596300000000     0.883900000000     0          
C170     C      0.660700000000     0.661200000000     0.851700000000     0          
F171     F      0.390900000000     0.345400000000     0.803100000000     0          
F172     F      0.360000000000     0.282600000000     0.893600000000     0          
F173     F      0.356700000000     0.381800000000     0.910500000000     0          
O174     O      0.084700000000     0.392000000000     0.867300000000     0          
O175     O      0.156700000000     0.441600000000     0.927500000000     0          
C176     C      0.261100000000     0.300300000000     0.769500000000     0          
C177     C      0.278000000000     0.335200000000     0.825300000000     0          
C178     C      0.238700000000     0.369800000000     0.862000000000     0          
H179     H      0.251500000000     0.393500000000     0.900200000000     0          
C180     C      0.181400000000     0.369400000000     0.842600000000     0          
C181     C      0.164100000000     0.334700000000     0.787200000000     0          
H182     H      0.124500000000     0.333900000000     0.773400000000     0          
C183     C      0.204100000000     0.300700000000     0.751400000000     0          
H184     H      0.191400000000     0.277100000000     0.713200000000     0          
C185     C      0.137200000000     0.403700000000     0.883900000000     0          
C186     C      0.339300000000     0.338800000000     0.851700000000     0          
F187     F      0.345400000000     0.609100000000     0.303100000000     0          
F188     F      0.282600000000     0.640000000000     0.393600000000     0          
F189     F      0.381800000000     0.643300000000     0.410500000000     0          
O190     O      0.392000000000     0.915300000000     0.367300000000     0          
O191     O      0.441600000000     0.843300000000     0.427500000000     0          
C192     C      0.300300000000     0.738900000000     0.269500000000     0          
C193     C      0.335200000000     0.722000000000     0.325300000000     0          
C194     C      0.369800000000     0.761300000000     0.362000000000     0          
H195     H      0.393500000000     0.748500000000     0.400200000000     0          
C196     C      0.369400000000     0.818600000000     0.342600000000     0          
C197     C      0.334700000000     0.835900000000     0.287200000000     0          
H198     H      0.333900000000     0.875500000000     0.273400000000     0          
C199     C      0.300700000000     0.795900000000     0.251400000000     0          
H200     H      0.277100000000     0.808600000000     0.213200000000     0          
C201     C      0.403700000000     0.862800000000     0.383900000000     0          
C202     C      0.338800000000     0.660700000000     0.351700000000     0          
C203     C      0.548100000000     0.979400000000     0.151100000000     0          
H204     H      0.580900000000     0.965300000000     0.176400000000     0          
C205     C      0.548100000000     0.979400000000     0.077100000000     0          
H206     H      0.580900000000     0.965300000000     0.052000000000     0          
O207     O      0.608000000000     0.084700000000     0.367300000000     0          
O208     O      0.558400000000     0.156700000000     0.427500000000     0          
C209     C      0.699700000000     0.261100000000     0.269500000000     0          
C210     C      0.664800000000     0.278000000000     0.325300000000     0          
C211     C      0.630200000000     0.238700000000     0.362000000000     0          
H212     H      0.606500000000     0.251500000000     0.400200000000     0          
C213     C      0.630600000000     0.181400000000     0.342600000000     0          
C214     C      0.665300000000     0.164100000000     0.287200000000     0          
H215     H      0.666100000000     0.124500000000     0.273400000000     0          
C216     C      0.699300000000     0.204100000000     0.251400000000     0          
C217     C      0.596300000000     0.137200000000     0.383900000000     0          
C218     C      0.451900000000     0.020600000000     0.151100000000     0          
H219     H      0.419100000000     0.034700000000     0.176400000000     0          
C220     C      0.451900000000     0.020600000000     0.077100000000     0          
F221     F      0.790300000000     0.204300000000     0.164700000000     0          
F222     F      0.703400000000     0.170700000000     0.118200000000     0          
F223     F      0.755300000000     0.114000000000     0.198000000000     0          
H224     H      0.664400000000     0.317600000000     0.339100000000     0          
H225     H      0.419100000000     0.034700000000     0.052000000000     0          
C226     C      0.733600000000     0.177000000000     0.192400000000     0          
O227     O      0.084700000000     0.608000000000     0.132700000000     0          
O228     O      0.156700000000     0.558400000000     0.072500000000     0          
C229     C      0.261100000000     0.699700000000     0.230500000000     0          
C230     C      0.278000000000     0.664800000000     0.174700000000     0          
C231     C      0.238700000000     0.630200000000     0.138000000000     0          
H232     H      0.251500000000     0.606500000000     0.099800000000     0          
C233     C      0.181400000000     0.630600000000     0.157400000000     0          
C234     C      0.164100000000     0.665300000000     0.212800000000     0          
H235     H      0.124500000000     0.666100000000     0.226600000000     0          
C236     C      0.204100000000     0.699300000000     0.248600000000     0          
C237     C      0.137200000000     0.596300000000     0.116100000000     0          
H238     H      0.112700000000     0.914300000000     0.957500000000     0          
F239     F      0.204300000000     0.790300000000     0.335300000000     0          
F240     F      0.170700000000     0.703400000000     0.381800000000     0          
F241     F      0.114000000000     0.755300000000     0.302000000000     0          
H242     H      0.317600000000     0.664400000000     0.160900000000     0          
C243     C      0.177000000000     0.733600000000     0.307600000000     0          
F244     F      0.609100000000     0.345400000000     0.196900000000     0          
F245     F      0.640000000000     0.282600000000     0.106400000000     0          
F246     F      0.643300000000     0.381800000000     0.089500000000     0          
O247     O      0.915300000000     0.392000000000     0.132700000000     0          
O248     O      0.843300000000     0.441600000000     0.072500000000     0          
C249     C      0.738900000000     0.300300000000     0.230500000000     0          
C250     C      0.722000000000     0.335200000000     0.174700000000     0          
C251     C      0.761300000000     0.369800000000     0.138000000000     0          
H252     H      0.748500000000     0.393500000000     0.099800000000     0          
C253     C      0.818600000000     0.369400000000     0.157400000000     0          
C254     C      0.835900000000     0.334700000000     0.212800000000     0          
H255     H      0.875500000000     0.333900000000     0.226600000000     0          
C256     C      0.795900000000     0.300700000000     0.248600000000     0          
H257     H      0.808600000000     0.277100000000     0.286800000000     0          
C258     C      0.862800000000     0.403700000000     0.116100000000     0          
C259     C      0.660700000000     0.338800000000     0.148300000000     0          
H260     H      0.887300000000     0.085700000000     0.957500000000     0          
O261     O      0.608000000000     0.915300000000     0.632700000000     0          
O262     O      0.558400000000     0.843300000000     0.572500000000     0          
C263     C      0.699700000000     0.738900000000     0.730500000000     0          
C264     C      0.664800000000     0.722000000000     0.674700000000     0          
C265     C      0.630200000000     0.761300000000     0.638000000000     0          
H266     H      0.606500000000     0.748500000000     0.599800000000     0          
C267     C      0.630600000000     0.818600000000     0.657400000000     0          
C268     C      0.665300000000     0.835900000000     0.712800000000     0          
H269     H      0.666100000000     0.875500000000     0.726600000000     0          
C270     C      0.699300000000     0.795900000000     0.748600000000     0          
C271     C      0.596300000000     0.862800000000     0.616100000000     0          
C272     C      0.451900000000     0.979400000000     0.848900000000     0          
H273     H      0.419100000000     0.965300000000     0.823600000000     0          
C274     C      0.451900000000     0.979400000000     0.922900000000     0          
C275     C      0.399800000000     0.957000000000     0.961900000000     0          
H276     H      0.914300000000     0.887300000000     0.457500000000     0          
F277     F      0.790300000000     0.795700000000     0.835300000000     0          
F278     F      0.703400000000     0.829300000000     0.881800000000     0          
F279     F      0.755300000000     0.886000000000     0.802000000000     0          
H280     H      0.664400000000     0.682400000000     0.660900000000     0          
C281     C      0.733600000000     0.823000000000     0.807600000000     0          
H282     H      0.393100000000     0.916400000000     0.948900000000     0          
H283     H      0.365800000000     0.980100000000     0.948900000000     0          
H284     H      0.406500000000     0.959800000000     0.013100000000     0          
O285     O      0.392000000000     0.084700000000     0.632700000000     0          
O286     O      0.441600000000     0.156700000000     0.572500000000     0          
C287     C      0.300300000000     0.261100000000     0.730500000000     0          
C288     C      0.335200000000     0.278000000000     0.674700000000     0          
C289     C      0.369800000000     0.238700000000     0.638000000000     0          
H290     H      0.393500000000     0.251500000000     0.599800000000     0          
C291     C      0.369400000000     0.181400000000     0.657400000000     0          
C292     C      0.334700000000     0.164100000000     0.712800000000     0          
H293     H      0.333900000000     0.124500000000     0.726600000000     0          
C294     C      0.300700000000     0.204100000000     0.748600000000     0          
C295     C      0.403700000000     0.137200000000     0.616100000000     0          
C296     C      0.548100000000     0.020600000000     0.848900000000     0          
H297     H      0.580900000000     0.034700000000     0.823600000000     0          
C298     C      0.548100000000     0.020600000000     0.922900000000     0          
H299     H      0.085700000000     0.112700000000     0.457500000000     0          
F300     F      0.209700000000     0.204300000000     0.835300000000     0          
F301     F      0.296600000000     0.170700000000     0.881800000000     0          
F302     F      0.244700000000     0.114000000000     0.802000000000     0          
H303     H      0.335600000000     0.317600000000     0.660900000000     0          
H304     H      0.580900000000     0.034700000000     0.948000000000     0          
C305     C      0.266400000000     0.177000000000     0.807600000000     0          
Zr306    Zr     0.000000000000     0.424340000000     0.092570000000     0          
O307     O      0.000000000000     0.439900000000     0.207500000000     0          
O308     O      0.000000000000     0.331700000000     0.062300000000     0          
C309     C      0.000000000000     0.215800000000     0.064100000000     0          
H310     H      0.000000000000     0.236400000000     0.107700000000     0          
C311     C      0.000000000000     0.155100000000     0.064000000000     0          
H312     H      0.000000000000     0.134400000000     0.107600000000     0          
Zr313    Zr     0.000000000000     0.575660000000     0.092570000000     0          
O314     O      0.000000000000     0.560100000000     0.207500000000     0          
O315     O      0.000000000000     0.668300000000     0.062300000000     0          
C316     C      0.000000000000     0.784200000000     0.064100000000     0          
H317     H      0.000000000000     0.763600000000     0.107700000000     0          
C318     C      0.000000000000     0.844900000000     0.064000000000     0          
H319     H      0.000000000000     0.865600000000     0.107600000000     0          
Zr320    Zr     0.575660000000     0.000000000000     0.592570000000     0          
O321     O      0.560100000000     0.000000000000     0.707500000000     0          
O322     O      0.668300000000     0.000000000000     0.562300000000     0          
C323     C      0.784200000000     0.000000000000     0.564100000000     0          
H324     H      0.763600000000     0.000000000000     0.607700000000     0          
C325     C      0.844900000000     0.000000000000     0.564000000000     0          
H326     H      0.865600000000     0.000000000000     0.607600000000     0          
Zr327    Zr     0.424340000000     0.000000000000     0.592570000000     0          
O328     O      0.439900000000     0.000000000000     0.707500000000     0          
O329     O      0.331700000000     0.000000000000     0.562300000000     0          
C330     C      0.215800000000     0.000000000000     0.564100000000     0          
H331     H      0.236400000000     0.000000000000     0.607700000000     0          
C332     C      0.155100000000     0.000000000000     0.564000000000     0          
H333     H      0.134400000000     0.000000000000     0.607600000000     0          
Zr334    Zr     0.000000000000     0.424340000000     0.907430000000     0          
O335     O      0.000000000000     0.439900000000     0.792500000000     0          
O336     O      0.000000000000     0.331700000000     0.937700000000     0          
C337     C      0.000000000000     0.215800000000     0.935900000000     0          
H338     H      0.000000000000     0.236400000000     0.892300000000     0          
C339     C      0.000000000000     0.155100000000     0.936000000000     0          
H340     H      0.000000000000     0.134400000000     0.892400000000     0          
Zr341    Zr     0.000000000000     0.575660000000     0.907430000000     0          
O342     O      0.000000000000     0.560100000000     0.792500000000     0          
O343     O      0.000000000000     0.668300000000     0.937700000000     0          
C344     C      0.000000000000     0.784200000000     0.935900000000     0          
H345     H      0.000000000000     0.763600000000     0.892300000000     0          
C346     C      0.000000000000     0.844900000000     0.936000000000     0          
H347     H      0.000000000000     0.865600000000     0.892400000000     0          
Zr348    Zr     0.424340000000     0.000000000000     0.407430000000     0          
O349     O      0.439900000000     0.000000000000     0.292500000000     0          
O350     O      0.331700000000     0.000000000000     0.437700000000     0          
C351     C      0.215800000000     0.000000000000     0.435900000000     0          
H352     H      0.236400000000     0.000000000000     0.392300000000     0          
C353     C      0.155100000000     0.000000000000     0.436000000000     0          
H354     H      0.134400000000     0.000000000000     0.392400000000     0          
Zr355    Zr     0.575660000000     0.000000000000     0.407430000000     0          
O356     O      0.560100000000     0.000000000000     0.292500000000     0          
O357     O      0.668300000000     0.000000000000     0.437700000000     0          
C358     C      0.784200000000     0.000000000000     0.435900000000     0          
H359     H      0.763600000000     0.000000000000     0.392300000000     0          
C360     C      0.844900000000     0.000000000000     0.436000000000     0          
H361     H      0.865600000000     0.000000000000     0.392400000000     0          
Zr362    Zr     0.107810000000     0.500000000000     0.000000000000     0          
Zr363    Zr     0.892190000000     0.500000000000     0.000000000000     0          
Zr364    Zr     0.500000000000     0.107810000000     0.500000000000     0          
Zr365    Zr     0.500000000000     0.892190000000     0.500000000000     0          
O366     O      0.053100000000     0.500000000000     0.092600000000     0          
O367     O      0.946900000000     0.500000000000     0.092600000000     0          
O368     O      0.500000000000     0.053100000000     0.592600000000     0          
O369     O      0.500000000000     0.946900000000     0.592600000000     0          
O370     O      0.946900000000     0.500000000000     0.907400000000     0          
O371     O      0.053100000000     0.500000000000     0.907400000000     0          
O372     O      0.500000000000     0.053100000000     0.407400000000     0          
O373     O      0.500000000000     0.946900000000     0.407400000000     0          
O374     O      0.054100000000     0.424900000000     0.000000000000     0          
C375     C      0.052250000000     0.030210000000     0.000000000000     0          
H376     H      0.087900000000     0.050800000000     0.000000000000     0          
O377     O      0.945900000000     0.575100000000     0.000000000000     0          
C378     C      0.947750000000     0.969790000000     0.000000000000     0          
H379     H      0.912100000000     0.949200000000     0.000000000000     0          
O380     O      0.575100000000     0.054100000000     0.500000000000     0          
C381     C      0.969790000000     0.052250000000     0.500000000000     0          
H382     H      0.949200000000     0.087900000000     0.500000000000     0          
O383     O      0.424900000000     0.945900000000     0.500000000000     0          
C384     C      0.030210000000     0.947750000000     0.500000000000     0          
H385     H      0.050800000000     0.912100000000     0.500000000000     0          
O386     O      0.945900000000     0.424900000000     0.000000000000     0          
C387     C      0.947750000000     0.030210000000     0.000000000000     0          
C388     C      0.890200000000     0.061300000000     0.000000000000     0          
H389     H      0.858700000000     0.032800000000     0.000000000000     0          
O390     O      0.054100000000     0.575100000000     0.000000000000     0          
C391     C      0.052250000000     0.969790000000     0.000000000000     0          
C392     C      0.109800000000     0.938700000000     0.000000000000     0          
H393     H      0.141300000000     0.967200000000     0.000000000000     0          
O394     O      0.424900000000     0.054100000000     0.500000000000     0          
C395     C      0.030210000000     0.052250000000     0.500000000000     0          
C396     C      0.061300000000     0.109800000000     0.500000000000     0          
H397     H      0.032800000000     0.141300000000     0.500000000000     0          
O398     O      0.575100000000     0.945900000000     0.500000000000     0          
C399     C      0.969790000000     0.947750000000     0.500000000000     0          
C400     C      0.938700000000     0.890200000000     0.500000000000     0          
H401     H      0.967200000000     0.858700000000     0.500000000000     0          
C402     C      0.000000000000     0.500000000000     0.232500000000     0          
C403     C      0.000000000000     0.500000000000     0.312000000000     0          
C404     C      0.000000000000     0.500000000000     0.460200000000     0          
C405     C      0.500000000000     0.000000000000     0.732500000000     0          
C406     C      0.500000000000     0.000000000000     0.812000000000     0          
C407     C      0.500000000000     0.000000000000     0.960200000000     0          
C408     C      0.000000000000     0.500000000000     0.767500000000     0          
C409     C      0.000000000000     0.500000000000     0.688000000000     0          
C410     C      0.000000000000     0.500000000000     0.539800000000     0          
C411     C      0.500000000000     0.000000000000     0.267500000000     0          
C412     C      0.500000000000     0.000000000000     0.188000000000     0          
C413     C      0.500000000000     0.000000000000     0.039800000000     0          
C414     C      0.000000000000     0.310100000000     0.000000000000     0          
C415     C      0.000000000000     0.245700000000     0.000000000000     0          
C416     C      0.000000000000     0.125100000000     0.000000000000     0          
C417     C      0.000000000000     0.060430000000     0.000000000000     0          
C418     C      0.000000000000     0.689900000000     0.000000000000     0          
C419     C      0.000000000000     0.754300000000     0.000000000000     0          
C420     C      0.000000000000     0.874900000000     0.000000000000     0          
C421     C      0.000000000000     0.939570000000     0.000000000000     0          
C422     C      0.689900000000     0.000000000000     0.500000000000     0          
C423     C      0.754300000000     0.000000000000     0.500000000000     0          
C424     C      0.874900000000     0.000000000000     0.500000000000     0          
C425     C      0.939570000000     0.000000000000     0.500000000000     0          
C426     C      0.310100000000     0.000000000000     0.500000000000     0          
C427     C      0.245700000000     0.000000000000     0.500000000000     0          
C428     C      0.125100000000     0.000000000000     0.500000000000     0          
C429     C      0.060430000000     0.000000000000     0.500000000000     0          


