data_NEVDEA

_audit_creation_method RASPA-1.0
_audit_creation_date 2020-11-2
_audit_author_name 'Rocio Bueno-Perez'

_cell_length_a    19.0042
_cell_length_b    19.0042
_cell_length_c    33.152
_cell_angle_alpha 90
_cell_angle_beta  90
_cell_angle_gamma 90
_cell_volume      11973.2

_symmetry_cell_setting          triclinic
_symmetry_space_group_name_Hall 'P 1'
_symmetry_space_group_name_H-M  'P 1'
_symmetry_Int_Tables_number     1

_symmetry_equiv_pos_as_xyz 'x,y,z'

loop_
_atom_site_label
_atom_site_type_symbol
_atom_site_fract_x
_atom_site_fract_y
_atom_site_fract_z
_atom_site_charge
O1       O      0.971800000000     0.091400000000     0.108100000000     0          
O2       O      0.938100000000     0.174100000000     0.059700000000     0          
O3       O      0.040400000000     0.083900000000     0.036600000000     0          
C4       C      0.973800000000     0.415800000000     0.222800000000     0          
C5       C      0.949900000000     0.195800000000     0.170400000000     0          
H6       H      0.965900000000     0.150300000000     0.175200000000     0          
C7       C      0.940200000000     0.151800000000     0.100200000000     0          
C8       C      0.944700000000     0.238800000000     0.204500000000     0          
H9       H      0.953700000000     0.225400000000     0.231000000000     0          
C10      C      0.920500000000     0.365700000000     0.221100000000     0          
C11      C      0.034300000000     0.412400000000     0.193100000000     0          
H12      H      0.042500000000     0.458300000000     0.182000000000     0          
H13      H      0.022800000000     0.380200000000     0.171800000000     0          
H14      H      0.075900000000     0.396500000000     0.206700000000     0          
C15      C      0.934400000000     0.211300000000     0.130200000000     0          
C16      C      0.923700000000     0.305700000000     0.191700000000     0          
C17      C      0.913400000000     0.278400000000     0.118100000000     0          
H18      H      0.904500000000     0.291900000000     0.091600000000     0          
C19      C      0.907800000000     0.322000000000     0.151700000000     0          
H20      H      0.891600000000     0.367400000000     0.146900000000     0          
H21      H      0.820500000000     0.279400000000     0.228400000000     0          
H22      H      0.812800000000     0.287100000000     0.275200000000     0          
H23      H      0.766600000000     0.333400000000     0.246400000000     0          
O24      O      0.028200000000     0.908600000000     0.108100000000     0          
O25      O      0.061900000000     0.825900000000     0.059700000000     0          
O26      O      0.959600000000     0.916100000000     0.036600000000     0          
C27      C      0.026200000000     0.584200000000     0.222800000000     0          
C28      C      0.050100000000     0.804200000000     0.170400000000     0          
H29      H      0.034100000000     0.849700000000     0.175200000000     0          
C30      C      0.059800000000     0.848200000000     0.100200000000     0          
C31      C      0.055300000000     0.761200000000     0.204500000000     0          
H32      H      0.046300000000     0.774600000000     0.231000000000     0          
C33      C      0.079500000000     0.634300000000     0.221100000000     0          
C34      C      0.965700000000     0.587600000000     0.193100000000     0          
H35      H      0.957500000000     0.541700000000     0.182000000000     0          
H36      H      0.977200000000     0.619800000000     0.171800000000     0          
H37      H      0.924100000000     0.603500000000     0.206700000000     0          
C38      C      0.065600000000     0.788700000000     0.130200000000     0          
C39      C      0.076300000000     0.694300000000     0.191700000000     0          
C40      C      0.086600000000     0.721600000000     0.118100000000     0          
H41      H      0.095500000000     0.708100000000     0.091600000000     0          
C42      C      0.092200000000     0.678000000000     0.151700000000     0          
H43      H      0.108400000000     0.632600000000     0.146900000000     0          
H44      H      0.179500000000     0.720600000000     0.228400000000     0          
H45      H      0.187200000000     0.712900000000     0.275200000000     0          
H46      H      0.233400000000     0.666600000000     0.246400000000     0          
O47      O      0.908600000000     0.971800000000     0.108100000000     0          
O48      O      0.825900000000     0.938100000000     0.059700000000     0          
O49      O      0.916100000000     0.040400000000     0.036600000000     0          
C50      C      0.584200000000     0.973800000000     0.222800000000     0          
C51      C      0.804200000000     0.949900000000     0.170400000000     0          
H52      H      0.849700000000     0.965900000000     0.175200000000     0          
C53      C      0.848200000000     0.940200000000     0.100200000000     0          
C54      C      0.761200000000     0.944700000000     0.204500000000     0          
H55      H      0.774600000000     0.953700000000     0.231000000000     0          
C56      C      0.634300000000     0.920500000000     0.221100000000     0          
C57      C      0.587600000000     0.034300000000     0.193100000000     0          
H58      H      0.541700000000     0.042500000000     0.182000000000     0          
H59      H      0.619800000000     0.022800000000     0.171800000000     0          
H60      H      0.603500000000     0.075900000000     0.206700000000     0          
C61      C      0.788700000000     0.934400000000     0.130200000000     0          
C62      C      0.694300000000     0.923700000000     0.191700000000     0          
C63      C      0.721600000000     0.913400000000     0.118100000000     0          
H64      H      0.708100000000     0.904500000000     0.091600000000     0          
C65      C      0.678000000000     0.907800000000     0.151700000000     0          
H66      H      0.632600000000     0.891600000000     0.146900000000     0          
O67      O      0.091400000000     0.028200000000     0.108100000000     0          
O68      O      0.174100000000     0.061900000000     0.059700000000     0          
O69      O      0.083900000000     0.959600000000     0.036600000000     0          
C70      C      0.415800000000     0.026200000000     0.222800000000     0          
C71      C      0.195800000000     0.050100000000     0.170400000000     0          
H72      H      0.150300000000     0.034100000000     0.175200000000     0          
C73      C      0.151800000000     0.059800000000     0.100200000000     0          
C74      C      0.238800000000     0.055300000000     0.204500000000     0          
H75      H      0.225400000000     0.046300000000     0.231000000000     0          
C76      C      0.365700000000     0.079500000000     0.221100000000     0          
C77      C      0.412400000000     0.965700000000     0.193100000000     0          
H78      H      0.458300000000     0.957500000000     0.182000000000     0          
H79      H      0.380200000000     0.977200000000     0.171800000000     0          
H80      H      0.396500000000     0.924100000000     0.206700000000     0          
C81      C      0.211300000000     0.065600000000     0.130200000000     0          
C82      C      0.305700000000     0.076300000000     0.191700000000     0          
C83      C      0.278400000000     0.086600000000     0.118100000000     0          
H84      H      0.291900000000     0.095500000000     0.091600000000     0          
C85      C      0.322000000000     0.092200000000     0.151700000000     0          
H86      H      0.367400000000     0.108400000000     0.146900000000     0          
H87      H      0.279400000000     0.179500000000     0.228400000000     0          
H88      H      0.287100000000     0.187200000000     0.275200000000     0          
H89      H      0.333400000000     0.233400000000     0.246400000000     0          
O90      O      0.528200000000     0.591400000000     0.391900000000     0          
O91      O      0.561900000000     0.674100000000     0.440300000000     0          
O92      O      0.459600000000     0.583900000000     0.463400000000     0          
C93      C      0.526200000000     0.915800000000     0.277200000000     0          
C94      C      0.550100000000     0.695800000000     0.329600000000     0          
H95      H      0.534100000000     0.650300000000     0.324800000000     0          
C96      C      0.559800000000     0.651800000000     0.399800000000     0          
C97      C      0.555300000000     0.738800000000     0.295500000000     0          
H98      H      0.546300000000     0.725400000000     0.269000000000     0          
C99      C      0.579500000000     0.865700000000     0.278900000000     0          
C100     C      0.465700000000     0.912400000000     0.306900000000     0          
H101     H      0.457500000000     0.958300000000     0.318000000000     0          
H102     H      0.477200000000     0.880200000000     0.328200000000     0          
H103     H      0.424100000000     0.896500000000     0.293300000000     0          
C104     C      0.565600000000     0.711300000000     0.369800000000     0          
C105     C      0.576300000000     0.805700000000     0.308300000000     0          
C106     C      0.586600000000     0.778400000000     0.381900000000     0          
H107     H      0.595500000000     0.791900000000     0.408400000000     0          
C108     C      0.592200000000     0.822000000000     0.348300000000     0          
H109     H      0.608400000000     0.867400000000     0.353100000000     0          
H110     H      0.679500000000     0.779400000000     0.271600000000     0          
H111     H      0.687200000000     0.787100000000     0.224800000000     0          
H112     H      0.733400000000     0.833400000000     0.253600000000     0          
O113     O      0.471800000000     0.408600000000     0.391900000000     0          
O114     O      0.438100000000     0.325900000000     0.440300000000     0          
O115     O      0.540400000000     0.416100000000     0.463400000000     0          
C116     C      0.473800000000     0.084200000000     0.277200000000     0          
C117     C      0.449900000000     0.304200000000     0.329600000000     0          
H118     H      0.465900000000     0.349700000000     0.324800000000     0          
C119     C      0.440200000000     0.348200000000     0.399800000000     0          
C120     C      0.444700000000     0.261200000000     0.295500000000     0          
H121     H      0.453700000000     0.274600000000     0.269000000000     0          
C122     C      0.420500000000     0.134300000000     0.278900000000     0          
C123     C      0.534300000000     0.087600000000     0.306900000000     0          
H124     H      0.542500000000     0.041700000000     0.318000000000     0          
H125     H      0.522800000000     0.119800000000     0.328200000000     0          
H126     H      0.575900000000     0.103500000000     0.293300000000     0          
C127     C      0.434400000000     0.288700000000     0.369800000000     0          
C128     C      0.423700000000     0.194300000000     0.308300000000     0          
C129     C      0.413400000000     0.221600000000     0.381900000000     0          
H130     H      0.404500000000     0.208100000000     0.408400000000     0          
C131     C      0.407800000000     0.178000000000     0.348300000000     0          
H132     H      0.391600000000     0.132600000000     0.353100000000     0          
O133     O      0.591400000000     0.471800000000     0.391900000000     0          
O134     O      0.674100000000     0.438100000000     0.440300000000     0          
O135     O      0.583900000000     0.540400000000     0.463400000000     0          
C136     C      0.915800000000     0.473800000000     0.277200000000     0          
C137     C      0.695800000000     0.449900000000     0.329600000000     0          
H138     H      0.650300000000     0.465900000000     0.324800000000     0          
C139     C      0.651800000000     0.440200000000     0.399800000000     0          
C140     C      0.738800000000     0.444700000000     0.295500000000     0          
H141     H      0.725400000000     0.453700000000     0.269000000000     0          
C142     C      0.865700000000     0.420500000000     0.278900000000     0          
C143     C      0.912400000000     0.534300000000     0.306900000000     0          
H144     H      0.958300000000     0.542500000000     0.318000000000     0          
H145     H      0.880200000000     0.522800000000     0.328200000000     0          
H146     H      0.896500000000     0.575900000000     0.293300000000     0          
C147     C      0.711300000000     0.434400000000     0.369800000000     0          
C148     C      0.805700000000     0.423700000000     0.308300000000     0          
C149     C      0.778400000000     0.413400000000     0.381900000000     0          
H150     H      0.791900000000     0.404500000000     0.408400000000     0          
C151     C      0.822000000000     0.407800000000     0.348300000000     0          
H152     H      0.867400000000     0.391600000000     0.353100000000     0          
O153     O      0.408600000000     0.528200000000     0.391900000000     0          
O154     O      0.325900000000     0.561900000000     0.440300000000     0          
O155     O      0.416100000000     0.459600000000     0.463400000000     0          
C156     C      0.084200000000     0.526200000000     0.277200000000     0          
C157     C      0.304200000000     0.550100000000     0.329600000000     0          
H158     H      0.349700000000     0.534100000000     0.324800000000     0          
C159     C      0.348200000000     0.559800000000     0.399800000000     0          
C160     C      0.261200000000     0.555300000000     0.295500000000     0          
H161     H      0.274600000000     0.546300000000     0.269000000000     0          
C162     C      0.134300000000     0.579500000000     0.278900000000     0          
C163     C      0.087600000000     0.465700000000     0.306900000000     0          
H164     H      0.041700000000     0.457500000000     0.318000000000     0          
H165     H      0.119800000000     0.477200000000     0.328200000000     0          
H166     H      0.103500000000     0.424100000000     0.293300000000     0          
C167     C      0.288700000000     0.565600000000     0.369800000000     0          
C168     C      0.194300000000     0.576300000000     0.308300000000     0          
C169     C      0.221600000000     0.586600000000     0.381900000000     0          
H170     H      0.208100000000     0.595500000000     0.408400000000     0          
C171     C      0.178000000000     0.592200000000     0.348300000000     0          
H172     H      0.132600000000     0.608400000000     0.353100000000     0          
O173     O      0.028200000000     0.908600000000     0.891900000000     0          
O174     O      0.061900000000     0.825900000000     0.940300000000     0          
O175     O      0.959600000000     0.916100000000     0.963400000000     0          
C176     C      0.026200000000     0.584200000000     0.777200000000     0          
C177     C      0.050100000000     0.804200000000     0.829600000000     0          
H178     H      0.034100000000     0.849700000000     0.824800000000     0          
C179     C      0.059800000000     0.848200000000     0.899800000000     0          
C180     C      0.055300000000     0.761200000000     0.795500000000     0          
H181     H      0.046300000000     0.774600000000     0.769000000000     0          
C182     C      0.079500000000     0.634300000000     0.778900000000     0          
C183     C      0.965700000000     0.587600000000     0.806900000000     0          
H184     H      0.957500000000     0.541700000000     0.818000000000     0          
H185     H      0.977200000000     0.619800000000     0.828200000000     0          
H186     H      0.924100000000     0.603500000000     0.793300000000     0          
C187     C      0.065600000000     0.788700000000     0.869800000000     0          
C188     C      0.076300000000     0.694300000000     0.808300000000     0          
C189     C      0.086600000000     0.721600000000     0.881900000000     0          
H190     H      0.095500000000     0.708100000000     0.908400000000     0          
C191     C      0.092200000000     0.678000000000     0.848300000000     0          
H192     H      0.108400000000     0.632600000000     0.853100000000     0          
O193     O      0.971800000000     0.091400000000     0.891900000000     0          
O194     O      0.938100000000     0.174100000000     0.940300000000     0          
O195     O      0.040400000000     0.083900000000     0.963400000000     0          
C196     C      0.973800000000     0.415800000000     0.777200000000     0          
C197     C      0.949900000000     0.195800000000     0.829600000000     0          
H198     H      0.965900000000     0.150300000000     0.824800000000     0          
C199     C      0.940200000000     0.151800000000     0.899800000000     0          
C200     C      0.944700000000     0.238800000000     0.795500000000     0          
H201     H      0.953700000000     0.225400000000     0.769000000000     0          
C202     C      0.920500000000     0.365700000000     0.778900000000     0          
C203     C      0.034300000000     0.412400000000     0.806900000000     0          
H204     H      0.042500000000     0.458300000000     0.818000000000     0          
H205     H      0.022800000000     0.380200000000     0.828200000000     0          
H206     H      0.075900000000     0.396500000000     0.793300000000     0          
C207     C      0.934400000000     0.211300000000     0.869800000000     0          
C208     C      0.923700000000     0.305700000000     0.808300000000     0          
C209     C      0.913400000000     0.278400000000     0.881900000000     0          
H210     H      0.904500000000     0.291900000000     0.908400000000     0          
C211     C      0.907800000000     0.322000000000     0.848300000000     0          
H212     H      0.891600000000     0.367400000000     0.853100000000     0          
H213     H      0.820500000000     0.279400000000     0.771600000000     0          
H214     H      0.812800000000     0.287100000000     0.724800000000     0          
H215     H      0.766600000000     0.333400000000     0.753600000000     0          
O216     O      0.091400000000     0.028200000000     0.891900000000     0          
O217     O      0.174100000000     0.061900000000     0.940300000000     0          
O218     O      0.083900000000     0.959600000000     0.963400000000     0          
C219     C      0.415800000000     0.026200000000     0.777200000000     0          
C220     C      0.195800000000     0.050100000000     0.829600000000     0          
H221     H      0.150300000000     0.034100000000     0.824800000000     0          
C222     C      0.151800000000     0.059800000000     0.899800000000     0          
C223     C      0.238800000000     0.055300000000     0.795500000000     0          
H224     H      0.225400000000     0.046300000000     0.769000000000     0          
C225     C      0.365700000000     0.079500000000     0.778900000000     0          
C226     C      0.412400000000     0.965700000000     0.806900000000     0          
H227     H      0.458300000000     0.957500000000     0.818000000000     0          
H228     H      0.380200000000     0.977200000000     0.828200000000     0          
H229     H      0.396500000000     0.924100000000     0.793300000000     0          
C230     C      0.211300000000     0.065600000000     0.869800000000     0          
C231     C      0.305700000000     0.076300000000     0.808300000000     0          
C232     C      0.278400000000     0.086600000000     0.881900000000     0          
H233     H      0.291900000000     0.095500000000     0.908400000000     0          
C234     C      0.322000000000     0.092200000000     0.848300000000     0          
H235     H      0.367400000000     0.108400000000     0.853100000000     0          
O236     O      0.908600000000     0.971800000000     0.891900000000     0          
O237     O      0.825900000000     0.938100000000     0.940300000000     0          
O238     O      0.916100000000     0.040400000000     0.963400000000     0          
C239     C      0.584200000000     0.973800000000     0.777200000000     0          
C240     C      0.804200000000     0.949900000000     0.829600000000     0          
H241     H      0.849700000000     0.965900000000     0.824800000000     0          
C242     C      0.848200000000     0.940200000000     0.899800000000     0          
C243     C      0.761200000000     0.944700000000     0.795500000000     0          
H244     H      0.774600000000     0.953700000000     0.769000000000     0          
C245     C      0.634300000000     0.920500000000     0.778900000000     0          
C246     C      0.587600000000     0.034300000000     0.806900000000     0          
H247     H      0.541700000000     0.042500000000     0.818000000000     0          
H248     H      0.619800000000     0.022800000000     0.828200000000     0          
H249     H      0.603500000000     0.075900000000     0.793300000000     0          
C250     C      0.788700000000     0.934400000000     0.869800000000     0          
C251     C      0.694300000000     0.923700000000     0.808300000000     0          
C252     C      0.721600000000     0.913400000000     0.881900000000     0          
H253     H      0.708100000000     0.904500000000     0.908400000000     0          
C254     C      0.678000000000     0.907800000000     0.848300000000     0          
H255     H      0.632600000000     0.891600000000     0.853100000000     0          
O256     O      0.471800000000     0.408600000000     0.608100000000     0          
O257     O      0.438100000000     0.325900000000     0.559700000000     0          
O258     O      0.540400000000     0.416100000000     0.536600000000     0          
C259     C      0.473800000000     0.084200000000     0.722800000000     0          
C260     C      0.449900000000     0.304200000000     0.670400000000     0          
H261     H      0.465900000000     0.349700000000     0.675200000000     0          
C262     C      0.440200000000     0.348200000000     0.600200000000     0          
C263     C      0.444700000000     0.261200000000     0.704500000000     0          
H264     H      0.453700000000     0.274600000000     0.731000000000     0          
C265     C      0.420500000000     0.134300000000     0.721100000000     0          
C266     C      0.534300000000     0.087600000000     0.693100000000     0          
H267     H      0.542500000000     0.041700000000     0.682000000000     0          
H268     H      0.522800000000     0.119800000000     0.671800000000     0          
H269     H      0.575900000000     0.103500000000     0.706700000000     0          
C270     C      0.434400000000     0.288700000000     0.630200000000     0          
C271     C      0.423700000000     0.194300000000     0.691700000000     0          
C272     C      0.413400000000     0.221600000000     0.618100000000     0          
H273     H      0.404500000000     0.208100000000     0.591600000000     0          
C274     C      0.407800000000     0.178000000000     0.651700000000     0          
H275     H      0.391600000000     0.132600000000     0.646900000000     0          
H276     H      0.320500000000     0.220600000000     0.728400000000     0          
H277     H      0.312800000000     0.212900000000     0.775200000000     0          
H278     H      0.266600000000     0.166600000000     0.746400000000     0          
O279     O      0.528200000000     0.591400000000     0.608100000000     0          
O280     O      0.561900000000     0.674100000000     0.559700000000     0          
O281     O      0.459600000000     0.583900000000     0.536600000000     0          
C282     C      0.526200000000     0.915800000000     0.722800000000     0          
C283     C      0.550100000000     0.695800000000     0.670400000000     0          
H284     H      0.534100000000     0.650300000000     0.675200000000     0          
C285     C      0.559800000000     0.651800000000     0.600200000000     0          
C286     C      0.555300000000     0.738800000000     0.704500000000     0          
H287     H      0.546300000000     0.725400000000     0.731000000000     0          
C288     C      0.579500000000     0.865700000000     0.721100000000     0          
C289     C      0.465700000000     0.912400000000     0.693100000000     0          
H290     H      0.457500000000     0.958300000000     0.682000000000     0          
H291     H      0.477200000000     0.880200000000     0.671800000000     0          
H292     H      0.424100000000     0.896500000000     0.706700000000     0          
C293     C      0.565600000000     0.711300000000     0.630200000000     0          
C294     C      0.576300000000     0.805700000000     0.691700000000     0          
C295     C      0.586600000000     0.778400000000     0.618100000000     0          
H296     H      0.595500000000     0.791900000000     0.591600000000     0          
C297     C      0.592200000000     0.822000000000     0.651700000000     0          
H298     H      0.608400000000     0.867400000000     0.646900000000     0          
H299     H      0.679500000000     0.779400000000     0.728400000000     0          
H300     H      0.687200000000     0.787100000000     0.775200000000     0          
H301     H      0.733400000000     0.833400000000     0.746400000000     0          
O302     O      0.408600000000     0.528200000000     0.608100000000     0          
O303     O      0.325900000000     0.561900000000     0.559700000000     0          
O304     O      0.416100000000     0.459600000000     0.536600000000     0          
C305     C      0.084200000000     0.526200000000     0.722800000000     0          
C306     C      0.304200000000     0.550100000000     0.670400000000     0          
H307     H      0.349700000000     0.534100000000     0.675200000000     0          
C308     C      0.348200000000     0.559800000000     0.600200000000     0          
C309     C      0.261200000000     0.555300000000     0.704500000000     0          
H310     H      0.274600000000     0.546300000000     0.731000000000     0          
C311     C      0.134300000000     0.579500000000     0.721100000000     0          
C312     C      0.087600000000     0.465700000000     0.693100000000     0          
H313     H      0.041700000000     0.457500000000     0.682000000000     0          
H314     H      0.119800000000     0.477200000000     0.671800000000     0          
H315     H      0.103500000000     0.424100000000     0.706700000000     0          
C316     C      0.288700000000     0.565600000000     0.630200000000     0          
C317     C      0.194300000000     0.576300000000     0.691700000000     0          
C318     C      0.221600000000     0.586600000000     0.618100000000     0          
H319     H      0.208100000000     0.595500000000     0.591600000000     0          
C320     C      0.178000000000     0.592200000000     0.651700000000     0          
H321     H      0.132600000000     0.608400000000     0.646900000000     0          
H322     H      0.220600000000     0.679500000000     0.728400000000     0          
H323     H      0.212900000000     0.687200000000     0.775200000000     0          
H324     H      0.166600000000     0.733400000000     0.746400000000     0          
O325     O      0.591400000000     0.471800000000     0.608100000000     0          
O326     O      0.674100000000     0.438100000000     0.559700000000     0          
O327     O      0.583900000000     0.540400000000     0.536600000000     0          
C328     C      0.915800000000     0.473800000000     0.722800000000     0          
C329     C      0.695800000000     0.449900000000     0.670400000000     0          
H330     H      0.650300000000     0.465900000000     0.675200000000     0          
C331     C      0.651800000000     0.440200000000     0.600200000000     0          
C332     C      0.738800000000     0.444700000000     0.704500000000     0          
H333     H      0.725400000000     0.453700000000     0.731000000000     0          
C334     C      0.865700000000     0.420500000000     0.721100000000     0          
C335     C      0.912400000000     0.534300000000     0.693100000000     0          
H336     H      0.958300000000     0.542500000000     0.682000000000     0          
H337     H      0.880200000000     0.522800000000     0.671800000000     0          
H338     H      0.896500000000     0.575900000000     0.706700000000     0          
C339     C      0.711300000000     0.434400000000     0.630200000000     0          
C340     C      0.805700000000     0.423700000000     0.691700000000     0          
C341     C      0.778400000000     0.413400000000     0.618100000000     0          
H342     H      0.791900000000     0.404500000000     0.591600000000     0          
C343     C      0.822000000000     0.407800000000     0.651700000000     0          
H344     H      0.867400000000     0.391600000000     0.646900000000     0          
Zr345    Zr     0.124260000000     0.044600000000     0.000000000000     0          
Zr346    Zr     0.875740000000     0.955400000000     0.000000000000     0          
Zr347    Zr     0.955400000000     0.124260000000     0.000000000000     0          
Zr348    Zr     0.044600000000     0.875740000000     0.000000000000     0          
Zr349    Zr     0.375740000000     0.544600000000     0.500000000000     0          
Zr350    Zr     0.624260000000     0.455400000000     0.500000000000     0          
Zr351    Zr     0.544600000000     0.624260000000     0.500000000000     0          
Zr352    Zr     0.455400000000     0.375740000000     0.500000000000     0          
Zr353    Zr     0.000000000000     0.000000000000     0.073540000000     0          
Zr354    Zr     0.500000000000     0.500000000000     0.426460000000     0          
Zr355    Zr     0.000000000000     0.000000000000     0.926460000000     0          
Zr356    Zr     0.500000000000     0.500000000000     0.573540000000     0          
C357     C      0.971970000000     0.471970000000     0.250000000000     0          
C358     C      0.867800000000     0.367800000000     0.250000000000     0          
C359     C      0.811900000000     0.311900000000     0.250000000000     0          
C360     C      0.028030000000     0.528030000000     0.250000000000     0          
C361     C      0.132200000000     0.632200000000     0.250000000000     0          
C362     C      0.188100000000     0.688100000000     0.250000000000     0          
C363     C      0.528030000000     0.971970000000     0.250000000000     0          
C364     C      0.632200000000     0.867800000000     0.250000000000     0          
C365     C      0.688100000000     0.811900000000     0.250000000000     0          
C366     C      0.471970000000     0.028030000000     0.250000000000     0          
C367     C      0.367800000000     0.132200000000     0.250000000000     0          
C368     C      0.311900000000     0.188100000000     0.250000000000     0          
C369     C      0.028030000000     0.528030000000     0.750000000000     0          
C370     C      0.132200000000     0.632200000000     0.750000000000     0          
C371     C      0.188100000000     0.688100000000     0.750000000000     0          
C372     C      0.971970000000     0.471970000000     0.750000000000     0          
C373     C      0.867800000000     0.367800000000     0.750000000000     0          
C374     C      0.811900000000     0.311900000000     0.750000000000     0          
C375     C      0.471970000000     0.028030000000     0.750000000000     0          
C376     C      0.367800000000     0.132200000000     0.750000000000     0          
C377     C      0.311900000000     0.188100000000     0.750000000000     0          
C378     C      0.528030000000     0.971970000000     0.750000000000     0          
C379     C      0.632200000000     0.867800000000     0.750000000000     0          
C380     C      0.688100000000     0.811900000000     0.750000000000     0          


