data_NEVLAE

_audit_creation_method RASPA-1.0
_audit_creation_date 2020-11-2
_audit_author_name 'Rocio Bueno-Perez'

_cell_length_a    19.041
_cell_length_b    19.041
_cell_length_c    33.134
_cell_angle_alpha 90
_cell_angle_beta  90
_cell_angle_gamma 90
_cell_volume      12013.1

_symmetry_cell_setting          triclinic
_symmetry_space_group_name_Hall 'P 1'
_symmetry_space_group_name_H-M  'P 1'
_symmetry_Int_Tables_number     1

_symmetry_equiv_pos_as_xyz 'x,y,z'

loop_
_atom_site_label
_atom_site_type_symbol
_atom_site_fract_x
_atom_site_fract_y
_atom_site_fract_z
_atom_site_charge
O1       O      0.971600000000     0.091800000000     0.108900000000     0          
O2       O      0.939000000000     0.172900000000     0.060600000000     0          
O3       O      0.037000000000     0.083600000000     0.035700000000     0          
C4       C      0.974600000000     0.415100000000     0.223200000000     0          
C5       C      0.954600000000     0.190700000000     0.170500000000     0          
H6       H      0.971200000000     0.145500000000     0.175400000000     0          
C7       C      0.939700000000     0.149100000000     0.101600000000     0          
C8       C      0.951100000000     0.238600000000     0.202300000000     0          
H9       H      0.963200000000     0.227600000000     0.228700000000     0          
C10      C      0.921400000000     0.365600000000     0.219500000000     0          
C11      C      0.031600000000     0.412000000000     0.191500000000     0          
H12      H      0.014400000000     0.432000000000     0.166700000000     0          
H13      H      0.044700000000     0.364000000000     0.186900000000     0          
H14      H      0.071700000000     0.438100000000     0.200500000000     0          
C15      C      0.933800000000     0.209400000000     0.131400000000     0          
C16      C      0.927400000000     0.305200000000     0.190200000000     0          
C17      C      0.909700000000     0.275400000000     0.119300000000     0          
H18      H      0.898200000000     0.286600000000     0.092800000000     0          
C19      C      0.904700000000     0.322600000000     0.151300000000     0          
H20      H      0.885800000000     0.366900000000     0.146700000000     0          
H21      H      0.823100000000     0.283000000000     0.228100000000     0          
H22      H      0.816400000000     0.289700000000     0.275100000000     0          
H23      H      0.769600000000     0.336400000000     0.246900000000     0          
O24      O      0.028400000000     0.908200000000     0.108900000000     0          
O25      O      0.061000000000     0.827100000000     0.060600000000     0          
O26      O      0.963000000000     0.916400000000     0.035700000000     0          
C27      C      0.025400000000     0.584900000000     0.223200000000     0          
C28      C      0.045400000000     0.809300000000     0.170500000000     0          
H29      H      0.028800000000     0.854500000000     0.175400000000     0          
C30      C      0.060300000000     0.850900000000     0.101600000000     0          
C31      C      0.048900000000     0.761400000000     0.202300000000     0          
H32      H      0.036800000000     0.772400000000     0.228700000000     0          
C33      C      0.078600000000     0.634400000000     0.219500000000     0          
C34      C      0.968400000000     0.588000000000     0.191500000000     0          
H35      H      0.985600000000     0.568000000000     0.166700000000     0          
H36      H      0.955300000000     0.636000000000     0.186900000000     0          
H37      H      0.928300000000     0.561900000000     0.200500000000     0          
C38      C      0.066200000000     0.790600000000     0.131400000000     0          
C39      C      0.072600000000     0.694800000000     0.190200000000     0          
C40      C      0.090300000000     0.724600000000     0.119300000000     0          
H41      H      0.101800000000     0.713400000000     0.092800000000     0          
C42      C      0.095300000000     0.677400000000     0.151300000000     0          
H43      H      0.114200000000     0.633100000000     0.146700000000     0          
H44      H      0.176900000000     0.717000000000     0.228100000000     0          
H45      H      0.183600000000     0.710300000000     0.275100000000     0          
H46      H      0.230400000000     0.663600000000     0.246900000000     0          
O47      O      0.908200000000     0.971600000000     0.108900000000     0          
O48      O      0.827100000000     0.939000000000     0.060600000000     0          
O49      O      0.916400000000     0.037000000000     0.035700000000     0          
C50      C      0.584900000000     0.974600000000     0.223200000000     0          
C51      C      0.809300000000     0.954600000000     0.170500000000     0          
H52      H      0.854500000000     0.971200000000     0.175400000000     0          
C53      C      0.850900000000     0.939700000000     0.101600000000     0          
C54      C      0.761400000000     0.951100000000     0.202300000000     0          
H55      H      0.772400000000     0.963200000000     0.228700000000     0          
C56      C      0.634400000000     0.921400000000     0.219500000000     0          
C57      C      0.588000000000     0.031600000000     0.191500000000     0          
H58      H      0.568000000000     0.014400000000     0.166700000000     0          
H59      H      0.636000000000     0.044700000000     0.186900000000     0          
H60      H      0.561900000000     0.071700000000     0.200500000000     0          
C61      C      0.790600000000     0.933800000000     0.131400000000     0          
C62      C      0.694800000000     0.927400000000     0.190200000000     0          
C63      C      0.724600000000     0.909700000000     0.119300000000     0          
H64      H      0.713400000000     0.898200000000     0.092800000000     0          
C65      C      0.677400000000     0.904700000000     0.151300000000     0          
H66      H      0.633100000000     0.885800000000     0.146700000000     0          
O67      O      0.091800000000     0.028400000000     0.108900000000     0          
O68      O      0.172900000000     0.061000000000     0.060600000000     0          
O69      O      0.083600000000     0.963000000000     0.035700000000     0          
C70      C      0.415100000000     0.025400000000     0.223200000000     0          
C71      C      0.190700000000     0.045400000000     0.170500000000     0          
H72      H      0.145500000000     0.028800000000     0.175400000000     0          
C73      C      0.149100000000     0.060300000000     0.101600000000     0          
C74      C      0.238600000000     0.048900000000     0.202300000000     0          
H75      H      0.227600000000     0.036800000000     0.228700000000     0          
C76      C      0.365600000000     0.078600000000     0.219500000000     0          
C77      C      0.412000000000     0.968400000000     0.191500000000     0          
H78      H      0.432000000000     0.985600000000     0.166700000000     0          
H79      H      0.364000000000     0.955300000000     0.186900000000     0          
H80      H      0.438100000000     0.928300000000     0.200500000000     0          
C81      C      0.209400000000     0.066200000000     0.131400000000     0          
C82      C      0.305200000000     0.072600000000     0.190200000000     0          
C83      C      0.275400000000     0.090300000000     0.119300000000     0          
H84      H      0.286600000000     0.101800000000     0.092800000000     0          
C85      C      0.322600000000     0.095300000000     0.151300000000     0          
H86      H      0.366900000000     0.114200000000     0.146700000000     0          
H87      H      0.283000000000     0.176900000000     0.228100000000     0          
H88      H      0.289700000000     0.183600000000     0.275100000000     0          
H89      H      0.336400000000     0.230400000000     0.246900000000     0          
O90      O      0.528400000000     0.591800000000     0.391100000000     0          
O91      O      0.561000000000     0.672900000000     0.439400000000     0          
O92      O      0.463000000000     0.583600000000     0.464300000000     0          
C93      C      0.525400000000     0.915100000000     0.276800000000     0          
C94      C      0.545400000000     0.690700000000     0.329500000000     0          
H95      H      0.528800000000     0.645500000000     0.324600000000     0          
C96      C      0.560300000000     0.649100000000     0.398400000000     0          
C97      C      0.548900000000     0.738600000000     0.297700000000     0          
H98      H      0.536800000000     0.727600000000     0.271300000000     0          
C99      C      0.578600000000     0.865600000000     0.280500000000     0          
C100     C      0.468400000000     0.912000000000     0.308500000000     0          
H101     H      0.485600000000     0.932000000000     0.333300000000     0          
H102     H      0.455300000000     0.864000000000     0.313100000000     0          
H103     H      0.428300000000     0.938100000000     0.299500000000     0          
C104     C      0.566200000000     0.709400000000     0.368600000000     0          
C105     C      0.572600000000     0.805200000000     0.309800000000     0          
C106     C      0.590300000000     0.775400000000     0.380700000000     0          
H107     H      0.601800000000     0.786600000000     0.407200000000     0          
C108     C      0.595300000000     0.822600000000     0.348700000000     0          
H109     H      0.614200000000     0.866900000000     0.353300000000     0          
H110     H      0.676900000000     0.783000000000     0.271900000000     0          
H111     H      0.683600000000     0.789700000000     0.224900000000     0          
H112     H      0.730400000000     0.836400000000     0.253100000000     0          
O113     O      0.471600000000     0.408200000000     0.391100000000     0          
O114     O      0.439000000000     0.327100000000     0.439400000000     0          
O115     O      0.537000000000     0.416400000000     0.464300000000     0          
C116     C      0.474600000000     0.084900000000     0.276800000000     0          
C117     C      0.454600000000     0.309300000000     0.329500000000     0          
H118     H      0.471200000000     0.354500000000     0.324600000000     0          
C119     C      0.439700000000     0.350900000000     0.398400000000     0          
C120     C      0.451100000000     0.261400000000     0.297700000000     0          
H121     H      0.463200000000     0.272400000000     0.271300000000     0          
C122     C      0.421400000000     0.134400000000     0.280500000000     0          
C123     C      0.531600000000     0.088000000000     0.308500000000     0          
H124     H      0.514400000000     0.068000000000     0.333300000000     0          
H125     H      0.544700000000     0.136000000000     0.313100000000     0          
H126     H      0.571700000000     0.061900000000     0.299500000000     0          
C127     C      0.433800000000     0.290600000000     0.368600000000     0          
C128     C      0.427400000000     0.194800000000     0.309800000000     0          
C129     C      0.409700000000     0.224600000000     0.380700000000     0          
H130     H      0.398200000000     0.213400000000     0.407200000000     0          
C131     C      0.404700000000     0.177400000000     0.348700000000     0          
H132     H      0.385800000000     0.133100000000     0.353300000000     0          
O133     O      0.591800000000     0.471600000000     0.391100000000     0          
O134     O      0.672900000000     0.439000000000     0.439400000000     0          
O135     O      0.583600000000     0.537000000000     0.464300000000     0          
C136     C      0.915100000000     0.474600000000     0.276800000000     0          
C137     C      0.690700000000     0.454600000000     0.329500000000     0          
H138     H      0.645500000000     0.471200000000     0.324600000000     0          
C139     C      0.649100000000     0.439700000000     0.398400000000     0          
C140     C      0.738600000000     0.451100000000     0.297700000000     0          
H141     H      0.727600000000     0.463200000000     0.271300000000     0          
C142     C      0.865600000000     0.421400000000     0.280500000000     0          
C143     C      0.912000000000     0.531600000000     0.308500000000     0          
H144     H      0.932000000000     0.514400000000     0.333300000000     0          
H145     H      0.864000000000     0.544700000000     0.313100000000     0          
H146     H      0.938100000000     0.571700000000     0.299500000000     0          
C147     C      0.709400000000     0.433800000000     0.368600000000     0          
C148     C      0.805200000000     0.427400000000     0.309800000000     0          
C149     C      0.775400000000     0.409700000000     0.380700000000     0          
H150     H      0.786600000000     0.398200000000     0.407200000000     0          
C151     C      0.822600000000     0.404700000000     0.348700000000     0          
H152     H      0.866900000000     0.385800000000     0.353300000000     0          
O153     O      0.408200000000     0.528400000000     0.391100000000     0          
O154     O      0.327100000000     0.561000000000     0.439400000000     0          
O155     O      0.416400000000     0.463000000000     0.464300000000     0          
C156     C      0.084900000000     0.525400000000     0.276800000000     0          
C157     C      0.309300000000     0.545400000000     0.329500000000     0          
H158     H      0.354500000000     0.528800000000     0.324600000000     0          
C159     C      0.350900000000     0.560300000000     0.398400000000     0          
C160     C      0.261400000000     0.548900000000     0.297700000000     0          
H161     H      0.272400000000     0.536800000000     0.271300000000     0          
C162     C      0.134400000000     0.578600000000     0.280500000000     0          
C163     C      0.088000000000     0.468400000000     0.308500000000     0          
H164     H      0.068000000000     0.485600000000     0.333300000000     0          
H165     H      0.136000000000     0.455300000000     0.313100000000     0          
H166     H      0.061900000000     0.428300000000     0.299500000000     0          
C167     C      0.290600000000     0.566200000000     0.368600000000     0          
C168     C      0.194800000000     0.572600000000     0.309800000000     0          
C169     C      0.224600000000     0.590300000000     0.380700000000     0          
H170     H      0.213400000000     0.601800000000     0.407200000000     0          
C171     C      0.177400000000     0.595300000000     0.348700000000     0          
H172     H      0.133100000000     0.614200000000     0.353300000000     0          
O173     O      0.028400000000     0.908200000000     0.891100000000     0          
O174     O      0.061000000000     0.827100000000     0.939400000000     0          
O175     O      0.963000000000     0.916400000000     0.964300000000     0          
C176     C      0.025400000000     0.584900000000     0.776800000000     0          
C177     C      0.045400000000     0.809300000000     0.829500000000     0          
H178     H      0.028800000000     0.854500000000     0.824600000000     0          
C179     C      0.060300000000     0.850900000000     0.898400000000     0          
C180     C      0.048900000000     0.761400000000     0.797700000000     0          
H181     H      0.036800000000     0.772400000000     0.771300000000     0          
C182     C      0.078600000000     0.634400000000     0.780500000000     0          
C183     C      0.968400000000     0.588000000000     0.808500000000     0          
H184     H      0.985600000000     0.568000000000     0.833300000000     0          
H185     H      0.955300000000     0.636000000000     0.813100000000     0          
H186     H      0.928300000000     0.561900000000     0.799500000000     0          
C187     C      0.066200000000     0.790600000000     0.868600000000     0          
C188     C      0.072600000000     0.694800000000     0.809800000000     0          
C189     C      0.090300000000     0.724600000000     0.880700000000     0          
H190     H      0.101800000000     0.713400000000     0.907200000000     0          
C191     C      0.095300000000     0.677400000000     0.848700000000     0          
H192     H      0.114200000000     0.633100000000     0.853300000000     0          
O193     O      0.971600000000     0.091800000000     0.891100000000     0          
O194     O      0.939000000000     0.172900000000     0.939400000000     0          
O195     O      0.037000000000     0.083600000000     0.964300000000     0          
C196     C      0.974600000000     0.415100000000     0.776800000000     0          
C197     C      0.954600000000     0.190700000000     0.829500000000     0          
H198     H      0.971200000000     0.145500000000     0.824600000000     0          
C199     C      0.939700000000     0.149100000000     0.898400000000     0          
C200     C      0.951100000000     0.238600000000     0.797700000000     0          
H201     H      0.963200000000     0.227600000000     0.771300000000     0          
C202     C      0.921400000000     0.365600000000     0.780500000000     0          
C203     C      0.031600000000     0.412000000000     0.808500000000     0          
H204     H      0.014400000000     0.432000000000     0.833300000000     0          
H205     H      0.044700000000     0.364000000000     0.813100000000     0          
H206     H      0.071700000000     0.438100000000     0.799500000000     0          
C207     C      0.933800000000     0.209400000000     0.868600000000     0          
C208     C      0.927400000000     0.305200000000     0.809800000000     0          
C209     C      0.909700000000     0.275400000000     0.880700000000     0          
H210     H      0.898200000000     0.286600000000     0.907200000000     0          
C211     C      0.904700000000     0.322600000000     0.848700000000     0          
H212     H      0.885800000000     0.366900000000     0.853300000000     0          
H213     H      0.823100000000     0.283000000000     0.771900000000     0          
H214     H      0.816400000000     0.289700000000     0.724900000000     0          
H215     H      0.769600000000     0.336400000000     0.753100000000     0          
O216     O      0.091800000000     0.028400000000     0.891100000000     0          
O217     O      0.172900000000     0.061000000000     0.939400000000     0          
O218     O      0.083600000000     0.963000000000     0.964300000000     0          
C219     C      0.415100000000     0.025400000000     0.776800000000     0          
C220     C      0.190700000000     0.045400000000     0.829500000000     0          
H221     H      0.145500000000     0.028800000000     0.824600000000     0          
C222     C      0.149100000000     0.060300000000     0.898400000000     0          
C223     C      0.238600000000     0.048900000000     0.797700000000     0          
H224     H      0.227600000000     0.036800000000     0.771300000000     0          
C225     C      0.365600000000     0.078600000000     0.780500000000     0          
C226     C      0.412000000000     0.968400000000     0.808500000000     0          
H227     H      0.432000000000     0.985600000000     0.833300000000     0          
H228     H      0.364000000000     0.955300000000     0.813100000000     0          
H229     H      0.438100000000     0.928300000000     0.799500000000     0          
C230     C      0.209400000000     0.066200000000     0.868600000000     0          
C231     C      0.305200000000     0.072600000000     0.809800000000     0          
C232     C      0.275400000000     0.090300000000     0.880700000000     0          
H233     H      0.286600000000     0.101800000000     0.907200000000     0          
C234     C      0.322600000000     0.095300000000     0.848700000000     0          
H235     H      0.366900000000     0.114200000000     0.853300000000     0          
O236     O      0.908200000000     0.971600000000     0.891100000000     0          
O237     O      0.827100000000     0.939000000000     0.939400000000     0          
O238     O      0.916400000000     0.037000000000     0.964300000000     0          
C239     C      0.584900000000     0.974600000000     0.776800000000     0          
C240     C      0.809300000000     0.954600000000     0.829500000000     0          
H241     H      0.854500000000     0.971200000000     0.824600000000     0          
C242     C      0.850900000000     0.939700000000     0.898400000000     0          
C243     C      0.761400000000     0.951100000000     0.797700000000     0          
H244     H      0.772400000000     0.963200000000     0.771300000000     0          
C245     C      0.634400000000     0.921400000000     0.780500000000     0          
C246     C      0.588000000000     0.031600000000     0.808500000000     0          
H247     H      0.568000000000     0.014400000000     0.833300000000     0          
H248     H      0.636000000000     0.044700000000     0.813100000000     0          
H249     H      0.561900000000     0.071700000000     0.799500000000     0          
C250     C      0.790600000000     0.933800000000     0.868600000000     0          
C251     C      0.694800000000     0.927400000000     0.809800000000     0          
C252     C      0.724600000000     0.909700000000     0.880700000000     0          
H253     H      0.713400000000     0.898200000000     0.907200000000     0          
C254     C      0.677400000000     0.904700000000     0.848700000000     0          
H255     H      0.633100000000     0.885800000000     0.853300000000     0          
O256     O      0.471600000000     0.408200000000     0.608900000000     0          
O257     O      0.439000000000     0.327100000000     0.560600000000     0          
O258     O      0.537000000000     0.416400000000     0.535700000000     0          
C259     C      0.474600000000     0.084900000000     0.723200000000     0          
C260     C      0.454600000000     0.309300000000     0.670500000000     0          
H261     H      0.471200000000     0.354500000000     0.675400000000     0          
C262     C      0.439700000000     0.350900000000     0.601600000000     0          
C263     C      0.451100000000     0.261400000000     0.702300000000     0          
H264     H      0.463200000000     0.272400000000     0.728700000000     0          
C265     C      0.421400000000     0.134400000000     0.719500000000     0          
C266     C      0.531600000000     0.088000000000     0.691500000000     0          
H267     H      0.514400000000     0.068000000000     0.666700000000     0          
H268     H      0.544700000000     0.136000000000     0.686900000000     0          
H269     H      0.571700000000     0.061900000000     0.700500000000     0          
C270     C      0.433800000000     0.290600000000     0.631400000000     0          
C271     C      0.427400000000     0.194800000000     0.690200000000     0          
C272     C      0.409700000000     0.224600000000     0.619300000000     0          
H273     H      0.398200000000     0.213400000000     0.592800000000     0          
C274     C      0.404700000000     0.177400000000     0.651300000000     0          
H275     H      0.385800000000     0.133100000000     0.646700000000     0          
H276     H      0.323100000000     0.217000000000     0.728100000000     0          
H277     H      0.316400000000     0.210300000000     0.775100000000     0          
H278     H      0.269600000000     0.163600000000     0.746900000000     0          
O279     O      0.528400000000     0.591800000000     0.608900000000     0          
O280     O      0.561000000000     0.672900000000     0.560600000000     0          
O281     O      0.463000000000     0.583600000000     0.535700000000     0          
C282     C      0.525400000000     0.915100000000     0.723200000000     0          
C283     C      0.545400000000     0.690700000000     0.670500000000     0          
H284     H      0.528800000000     0.645500000000     0.675400000000     0          
C285     C      0.560300000000     0.649100000000     0.601600000000     0          
C286     C      0.548900000000     0.738600000000     0.702300000000     0          
H287     H      0.536800000000     0.727600000000     0.728700000000     0          
C288     C      0.578600000000     0.865600000000     0.719500000000     0          
C289     C      0.468400000000     0.912000000000     0.691500000000     0          
H290     H      0.485600000000     0.932000000000     0.666700000000     0          
H291     H      0.455300000000     0.864000000000     0.686900000000     0          
H292     H      0.428300000000     0.938100000000     0.700500000000     0          
C293     C      0.566200000000     0.709400000000     0.631400000000     0          
C294     C      0.572600000000     0.805200000000     0.690200000000     0          
C295     C      0.590300000000     0.775400000000     0.619300000000     0          
H296     H      0.601800000000     0.786600000000     0.592800000000     0          
C297     C      0.595300000000     0.822600000000     0.651300000000     0          
H298     H      0.614200000000     0.866900000000     0.646700000000     0          
H299     H      0.676900000000     0.783000000000     0.728100000000     0          
H300     H      0.683600000000     0.789700000000     0.775100000000     0          
H301     H      0.730400000000     0.836400000000     0.746900000000     0          
O302     O      0.408200000000     0.528400000000     0.608900000000     0          
O303     O      0.327100000000     0.561000000000     0.560600000000     0          
O304     O      0.416400000000     0.463000000000     0.535700000000     0          
C305     C      0.084900000000     0.525400000000     0.723200000000     0          
C306     C      0.309300000000     0.545400000000     0.670500000000     0          
H307     H      0.354500000000     0.528800000000     0.675400000000     0          
C308     C      0.350900000000     0.560300000000     0.601600000000     0          
C309     C      0.261400000000     0.548900000000     0.702300000000     0          
H310     H      0.272400000000     0.536800000000     0.728700000000     0          
C311     C      0.134400000000     0.578600000000     0.719500000000     0          
C312     C      0.088000000000     0.468400000000     0.691500000000     0          
H313     H      0.068000000000     0.485600000000     0.666700000000     0          
H314     H      0.136000000000     0.455300000000     0.686900000000     0          
H315     H      0.061900000000     0.428300000000     0.700500000000     0          
C316     C      0.290600000000     0.566200000000     0.631400000000     0          
C317     C      0.194800000000     0.572600000000     0.690200000000     0          
C318     C      0.224600000000     0.590300000000     0.619300000000     0          
H319     H      0.213400000000     0.601800000000     0.592800000000     0          
C320     C      0.177400000000     0.595300000000     0.651300000000     0          
H321     H      0.133100000000     0.614200000000     0.646700000000     0          
H322     H      0.217000000000     0.676900000000     0.728100000000     0          
H323     H      0.210300000000     0.683600000000     0.775100000000     0          
H324     H      0.163600000000     0.730400000000     0.746900000000     0          
O325     O      0.591800000000     0.471600000000     0.608900000000     0          
O326     O      0.672900000000     0.439000000000     0.560600000000     0          
O327     O      0.583600000000     0.537000000000     0.535700000000     0          
C328     C      0.915100000000     0.474600000000     0.723200000000     0          
C329     C      0.690700000000     0.454600000000     0.670500000000     0          
H330     H      0.645500000000     0.471200000000     0.675400000000     0          
C331     C      0.649100000000     0.439700000000     0.601600000000     0          
C332     C      0.738600000000     0.451100000000     0.702300000000     0          
H333     H      0.727600000000     0.463200000000     0.728700000000     0          
C334     C      0.865600000000     0.421400000000     0.719500000000     0          
C335     C      0.912000000000     0.531600000000     0.691500000000     0          
H336     H      0.932000000000     0.514400000000     0.666700000000     0          
H337     H      0.864000000000     0.544700000000     0.686900000000     0          
H338     H      0.938100000000     0.571700000000     0.700500000000     0          
C339     C      0.709400000000     0.433800000000     0.631400000000     0          
C340     C      0.805200000000     0.427400000000     0.690200000000     0          
C341     C      0.775400000000     0.409700000000     0.619300000000     0          
H342     H      0.786600000000     0.398200000000     0.592800000000     0          
C343     C      0.822600000000     0.404700000000     0.651300000000     0          
H344     H      0.866900000000     0.385800000000     0.646700000000     0          
Zr345    Zr     0.123710000000     0.044810000000     0.000000000000     0          
Zr346    Zr     0.876290000000     0.955190000000     0.000000000000     0          
Zr347    Zr     0.955190000000     0.123710000000     0.000000000000     0          
Zr348    Zr     0.044810000000     0.876290000000     0.000000000000     0          
Zr349    Zr     0.376290000000     0.544810000000     0.500000000000     0          
Zr350    Zr     0.623710000000     0.455190000000     0.500000000000     0          
Zr351    Zr     0.544810000000     0.623710000000     0.500000000000     0          
Zr352    Zr     0.455190000000     0.376290000000     0.500000000000     0          
Zr353    Zr     0.000000000000     0.000000000000     0.073520000000     0          
Zr354    Zr     0.500000000000     0.500000000000     0.426480000000     0          
Zr355    Zr     0.000000000000     0.000000000000     0.926480000000     0          
Zr356    Zr     0.500000000000     0.500000000000     0.573520000000     0          
C357     C      0.972070000000     0.472070000000     0.250000000000     0          
C358     C      0.870700000000     0.370700000000     0.250000000000     0          
C359     C      0.814900000000     0.314900000000     0.250000000000     0          
C360     C      0.027930000000     0.527930000000     0.250000000000     0          
C361     C      0.129300000000     0.629300000000     0.250000000000     0          
C362     C      0.185100000000     0.685100000000     0.250000000000     0          
C363     C      0.527930000000     0.972070000000     0.250000000000     0          
C364     C      0.629300000000     0.870700000000     0.250000000000     0          
C365     C      0.685100000000     0.814900000000     0.250000000000     0          
C366     C      0.472070000000     0.027930000000     0.250000000000     0          
C367     C      0.370700000000     0.129300000000     0.250000000000     0          
C368     C      0.314900000000     0.185100000000     0.250000000000     0          
C369     C      0.027930000000     0.527930000000     0.750000000000     0          
C370     C      0.129300000000     0.629300000000     0.750000000000     0          
C371     C      0.185100000000     0.685100000000     0.750000000000     0          
C372     C      0.972070000000     0.472070000000     0.750000000000     0          
C373     C      0.870700000000     0.370700000000     0.750000000000     0          
C374     C      0.814900000000     0.314900000000     0.750000000000     0          
C375     C      0.472070000000     0.027930000000     0.750000000000     0          
C376     C      0.370700000000     0.129300000000     0.750000000000     0          
C377     C      0.314900000000     0.185100000000     0.750000000000     0          
C378     C      0.527930000000     0.972070000000     0.750000000000     0          
C379     C      0.629300000000     0.870700000000     0.750000000000     0          
C380     C      0.685100000000     0.814900000000     0.750000000000     0          


