data_NEVSUF12

_audit_creation_method RASPA-1.0
_audit_creation_date 2020-11-2
_audit_author_name 'Rocio Bueno-Perez'

_cell_length_a    19.0173
_cell_length_b    19.0173
_cell_length_c    32.8783
_cell_angle_alpha 90
_cell_angle_beta  90
_cell_angle_gamma 90
_cell_volume      11890.7

_symmetry_cell_setting          triclinic
_symmetry_space_group_name_Hall 'P 1'
_symmetry_space_group_name_H-M  'P 1'
_symmetry_Int_Tables_number     1

_symmetry_equiv_pos_as_xyz 'x,y,z'

loop_
_atom_site_label
_atom_site_type_symbol
_atom_site_fract_x
_atom_site_fract_y
_atom_site_fract_z
_atom_site_charge
O1       O      0.533000000000     0.593380000000     0.609000000000     0          
O2       O      0.564830000000     0.672380000000     0.561520000000     0          
O3       O      0.462090000000     0.585910000000     0.536630000000     0          
C4       C      0.524400000000     0.917200000000     0.722010000000     0          
C5       C      0.544000000000     0.692100000000     0.669320000000     0          
H6       H      0.526300000000     0.646900000000     0.676100000000     0          
C7       C      0.552600000000     0.653900000000     0.597500000000     0          
C8       C      0.551300000000     0.743300000000     0.699220000000     0          
H9       H      0.539500000000     0.732100000000     0.726500000000     0          
C10      C      0.577400000000     0.866100000000     0.721840000000     0          
C11      C      0.462600000000     0.913600000000     0.692660000000     0          
H12      H      0.472300000000     0.943300000000     0.668900000000     0          
H13      H      0.420000000000     0.930300000000     0.706300000000     0          
H14      H      0.455700000000     0.864900000000     0.683800000000     0          
C15      C      0.562400000000     0.707200000000     0.629990000000     0          
C16      C      0.575000000000     0.809800000000     0.690180000000     0          
C17      C      0.588800000000     0.771600000000     0.620950000000     0          
H18      H      0.603200000000     0.781500000000     0.593900000000     0          
C19      C      0.595200000000     0.823800000000     0.650790000000     0          
H20      H      0.613400000000     0.868700000000     0.643900000000     0          
H21      H      0.666600000000     0.766300000000     0.744100000000     0          
H22      H      0.710700000000     0.810400000000     0.776800000000     0          
H23      H      0.723200000000     0.822900000000     0.729200000000     0          
O24      O      0.467000000000     0.406620000000     0.609000000000     0          
O25      O      0.435170000000     0.327620000000     0.561520000000     0          
O26      O      0.537910000000     0.414090000000     0.536630000000     0          
C27      C      0.475600000000     0.082800000000     0.722010000000     0          
C28      C      0.456000000000     0.307900000000     0.669320000000     0          
H29      H      0.473700000000     0.353100000000     0.676100000000     0          
C30      C      0.447400000000     0.346100000000     0.597500000000     0          
C31      C      0.448700000000     0.256700000000     0.699220000000     0          
H32      H      0.460500000000     0.267900000000     0.726500000000     0          
C33      C      0.422600000000     0.133900000000     0.721840000000     0          
C34      C      0.537400000000     0.086400000000     0.692660000000     0          
H35      H      0.527700000000     0.056700000000     0.668900000000     0          
H36      H      0.580000000000     0.069700000000     0.706300000000     0          
H37      H      0.544300000000     0.135100000000     0.683800000000     0          
C38      C      0.437600000000     0.292800000000     0.629990000000     0          
C39      C      0.425000000000     0.190200000000     0.690180000000     0          
C40      C      0.411200000000     0.228400000000     0.620950000000     0          
H41      H      0.396800000000     0.218500000000     0.593900000000     0          
C42      C      0.404800000000     0.176200000000     0.650790000000     0          
H43      H      0.386600000000     0.131300000000     0.643900000000     0          
H44      H      0.333400000000     0.233700000000     0.744100000000     0          
H45      H      0.289300000000     0.189600000000     0.776800000000     0          
H46      H      0.276800000000     0.177100000000     0.729200000000     0          
O47      O      0.406620000000     0.533000000000     0.609000000000     0          
O48      O      0.327620000000     0.564830000000     0.561520000000     0          
O49      O      0.414090000000     0.462090000000     0.536630000000     0          
C50      C      0.082800000000     0.524400000000     0.722010000000     0          
C51      C      0.307900000000     0.544000000000     0.669320000000     0          
H52      H      0.353100000000     0.526300000000     0.676100000000     0          
C53      C      0.346100000000     0.552600000000     0.597500000000     0          
C54      C      0.256700000000     0.551300000000     0.699220000000     0          
H55      H      0.267900000000     0.539500000000     0.726500000000     0          
C56      C      0.133900000000     0.577400000000     0.721840000000     0          
C57      C      0.086400000000     0.462600000000     0.692660000000     0          
H58      H      0.056700000000     0.472300000000     0.668900000000     0          
H59      H      0.069700000000     0.420000000000     0.706300000000     0          
H60      H      0.135100000000     0.455700000000     0.683800000000     0          
C61      C      0.292800000000     0.562400000000     0.629990000000     0          
C62      C      0.190200000000     0.575000000000     0.690180000000     0          
C63      C      0.228400000000     0.588800000000     0.620950000000     0          
H64      H      0.218500000000     0.603200000000     0.593900000000     0          
C65      C      0.176200000000     0.595200000000     0.650790000000     0          
H66      H      0.131300000000     0.613400000000     0.643900000000     0          
H67      H      0.233700000000     0.666600000000     0.744100000000     0          
H68      H      0.189600000000     0.710700000000     0.776800000000     0          
H69      H      0.177100000000     0.723200000000     0.729200000000     0          
O70      O      0.593380000000     0.467000000000     0.609000000000     0          
O71      O      0.672380000000     0.435170000000     0.561520000000     0          
O72      O      0.585910000000     0.537910000000     0.536630000000     0          
C73      C      0.917200000000     0.475600000000     0.722010000000     0          
C74      C      0.692100000000     0.456000000000     0.669320000000     0          
H75      H      0.646900000000     0.473700000000     0.676100000000     0          
C76      C      0.653900000000     0.447400000000     0.597500000000     0          
C77      C      0.743300000000     0.448700000000     0.699220000000     0          
H78      H      0.732100000000     0.460500000000     0.726500000000     0          
C79      C      0.866100000000     0.422600000000     0.721840000000     0          
C80      C      0.913600000000     0.537400000000     0.692660000000     0          
H81      H      0.943300000000     0.527700000000     0.668900000000     0          
H82      H      0.930300000000     0.580000000000     0.706300000000     0          
H83      H      0.864900000000     0.544300000000     0.683800000000     0          
C84      C      0.707200000000     0.437600000000     0.629990000000     0          
C85      C      0.809800000000     0.425000000000     0.690180000000     0          
C86      C      0.771600000000     0.411200000000     0.620950000000     0          
H87      H      0.781500000000     0.396800000000     0.593900000000     0          
C88      C      0.823800000000     0.404800000000     0.650790000000     0          
H89      H      0.868700000000     0.386600000000     0.643900000000     0          
H90      H      0.766300000000     0.333400000000     0.744100000000     0          
H91      H      0.810400000000     0.289300000000     0.776800000000     0          
H92      H      0.822900000000     0.276800000000     0.729200000000     0          
O93      O      0.967000000000     0.093380000000     0.891000000000     0          
O94      O      0.935170000000     0.172380000000     0.938480000000     0          
O95      O      0.037910000000     0.085910000000     0.963370000000     0          
C96      C      0.975600000000     0.417200000000     0.777990000000     0          
C97      C      0.956000000000     0.192100000000     0.830680000000     0          
H98      H      0.973700000000     0.146900000000     0.823900000000     0          
C99      C      0.947400000000     0.153900000000     0.902500000000     0          
C100     C      0.948700000000     0.243300000000     0.800780000000     0          
H101     H      0.960500000000     0.232100000000     0.773500000000     0          
C102     C      0.922600000000     0.366100000000     0.778160000000     0          
C103     C      0.037400000000     0.413600000000     0.807340000000     0          
H104     H      0.027700000000     0.443300000000     0.831100000000     0          
H105     H      0.080000000000     0.430300000000     0.793700000000     0          
H106     H      0.044300000000     0.364900000000     0.816200000000     0          
C107     C      0.937600000000     0.207200000000     0.870010000000     0          
C108     C      0.925000000000     0.309800000000     0.809820000000     0          
C109     C      0.911200000000     0.271600000000     0.879050000000     0          
H110     H      0.896800000000     0.281500000000     0.906100000000     0          
C111     C      0.904800000000     0.323800000000     0.849210000000     0          
H112     H      0.886600000000     0.368700000000     0.856100000000     0          
O113     O      0.033000000000     0.906620000000     0.891000000000     0          
O114     O      0.064830000000     0.827620000000     0.938480000000     0          
O115     O      0.962090000000     0.914090000000     0.963370000000     0          
C116     C      0.024400000000     0.582800000000     0.777990000000     0          
C117     C      0.044000000000     0.807900000000     0.830680000000     0          
H118     H      0.026300000000     0.853100000000     0.823900000000     0          
C119     C      0.052600000000     0.846100000000     0.902500000000     0          
C120     C      0.051300000000     0.756700000000     0.800780000000     0          
H121     H      0.039500000000     0.767900000000     0.773500000000     0          
C122     C      0.077400000000     0.633900000000     0.778160000000     0          
C123     C      0.962600000000     0.586400000000     0.807340000000     0          
H124     H      0.972300000000     0.556700000000     0.831100000000     0          
H125     H      0.920000000000     0.569700000000     0.793700000000     0          
H126     H      0.955700000000     0.635100000000     0.816200000000     0          
C127     C      0.062400000000     0.792800000000     0.870010000000     0          
C128     C      0.075000000000     0.690200000000     0.809820000000     0          
C129     C      0.088800000000     0.728400000000     0.879050000000     0          
H130     H      0.103200000000     0.718500000000     0.906100000000     0          
C131     C      0.095200000000     0.676200000000     0.849210000000     0          
H132     H      0.113400000000     0.631300000000     0.856100000000     0          
O133     O      0.093380000000     0.033000000000     0.891000000000     0          
O134     O      0.172380000000     0.064830000000     0.938480000000     0          
O135     O      0.085910000000     0.962090000000     0.963370000000     0          
C136     C      0.417200000000     0.024400000000     0.777990000000     0          
C137     C      0.192100000000     0.044000000000     0.830680000000     0          
H138     H      0.146900000000     0.026300000000     0.823900000000     0          
C139     C      0.153900000000     0.052600000000     0.902500000000     0          
C140     C      0.243300000000     0.051300000000     0.800780000000     0          
H141     H      0.232100000000     0.039500000000     0.773500000000     0          
C142     C      0.366100000000     0.077400000000     0.778160000000     0          
C143     C      0.413600000000     0.962600000000     0.807340000000     0          
H144     H      0.443300000000     0.972300000000     0.831100000000     0          
H145     H      0.430300000000     0.920000000000     0.793700000000     0          
H146     H      0.364900000000     0.955700000000     0.816200000000     0          
C147     C      0.207200000000     0.062400000000     0.870010000000     0          
C148     C      0.309800000000     0.075000000000     0.809820000000     0          
C149     C      0.271600000000     0.088800000000     0.879050000000     0          
H150     H      0.281500000000     0.103200000000     0.906100000000     0          
C151     C      0.323800000000     0.095200000000     0.849210000000     0          
H152     H      0.368700000000     0.113400000000     0.856100000000     0          
O153     O      0.906620000000     0.967000000000     0.891000000000     0          
O154     O      0.827620000000     0.935170000000     0.938480000000     0          
O155     O      0.914090000000     0.037910000000     0.963370000000     0          
C156     C      0.582800000000     0.975600000000     0.777990000000     0          
C157     C      0.807900000000     0.956000000000     0.830680000000     0          
H158     H      0.853100000000     0.973700000000     0.823900000000     0          
C159     C      0.846100000000     0.947400000000     0.902500000000     0          
C160     C      0.756700000000     0.948700000000     0.800780000000     0          
H161     H      0.767900000000     0.960500000000     0.773500000000     0          
C162     C      0.633900000000     0.922600000000     0.778160000000     0          
C163     C      0.586400000000     0.037400000000     0.807340000000     0          
H164     H      0.556700000000     0.027700000000     0.831100000000     0          
H165     H      0.569700000000     0.080000000000     0.793700000000     0          
H166     H      0.635100000000     0.044300000000     0.816200000000     0          
C167     C      0.792800000000     0.937600000000     0.870010000000     0          
C168     C      0.690200000000     0.925000000000     0.809820000000     0          
C169     C      0.728400000000     0.911200000000     0.879050000000     0          
H170     H      0.718500000000     0.896800000000     0.906100000000     0          
C171     C      0.676200000000     0.904800000000     0.849210000000     0          
H172     H      0.631300000000     0.886600000000     0.856100000000     0          
O173     O      0.467000000000     0.406620000000     0.391000000000     0          
O174     O      0.435170000000     0.327620000000     0.438480000000     0          
O175     O      0.537910000000     0.414090000000     0.463370000000     0          
C176     C      0.475600000000     0.082800000000     0.277990000000     0          
C177     C      0.456000000000     0.307900000000     0.330680000000     0          
H178     H      0.473700000000     0.353100000000     0.323900000000     0          
C179     C      0.447400000000     0.346100000000     0.402500000000     0          
C180     C      0.448700000000     0.256700000000     0.300780000000     0          
H181     H      0.460500000000     0.267900000000     0.273500000000     0          
C182     C      0.422600000000     0.133900000000     0.278160000000     0          
C183     C      0.537400000000     0.086400000000     0.307340000000     0          
H184     H      0.527700000000     0.056700000000     0.331100000000     0          
H185     H      0.580000000000     0.069700000000     0.293700000000     0          
H186     H      0.544300000000     0.135100000000     0.316200000000     0          
C187     C      0.437600000000     0.292800000000     0.370010000000     0          
C188     C      0.425000000000     0.190200000000     0.309820000000     0          
C189     C      0.411200000000     0.228400000000     0.379050000000     0          
H190     H      0.396800000000     0.218500000000     0.406100000000     0          
C191     C      0.404800000000     0.176200000000     0.349210000000     0          
H192     H      0.386600000000     0.131300000000     0.356100000000     0          
H193     H      0.333400000000     0.233700000000     0.255900000000     0          
H194     H      0.289300000000     0.189600000000     0.223200000000     0          
H195     H      0.276800000000     0.177100000000     0.270800000000     0          
O196     O      0.533000000000     0.593380000000     0.391000000000     0          
O197     O      0.564830000000     0.672380000000     0.438480000000     0          
O198     O      0.462090000000     0.585910000000     0.463370000000     0          
C199     C      0.524400000000     0.917200000000     0.277990000000     0          
C200     C      0.544000000000     0.692100000000     0.330680000000     0          
H201     H      0.526300000000     0.646900000000     0.323900000000     0          
C202     C      0.552600000000     0.653900000000     0.402500000000     0          
C203     C      0.551300000000     0.743300000000     0.300780000000     0          
H204     H      0.539500000000     0.732100000000     0.273500000000     0          
C205     C      0.577400000000     0.866100000000     0.278160000000     0          
C206     C      0.462600000000     0.913600000000     0.307340000000     0          
H207     H      0.472300000000     0.943300000000     0.331100000000     0          
H208     H      0.420000000000     0.930300000000     0.293700000000     0          
H209     H      0.455700000000     0.864900000000     0.316200000000     0          
C210     C      0.562400000000     0.707200000000     0.370010000000     0          
C211     C      0.575000000000     0.809800000000     0.309820000000     0          
C212     C      0.588800000000     0.771600000000     0.379050000000     0          
H213     H      0.603200000000     0.781500000000     0.406100000000     0          
C214     C      0.595200000000     0.823800000000     0.349210000000     0          
H215     H      0.613400000000     0.868700000000     0.356100000000     0          
H216     H      0.666600000000     0.766300000000     0.255900000000     0          
H217     H      0.710700000000     0.810400000000     0.223200000000     0          
H218     H      0.723200000000     0.822900000000     0.270800000000     0          
O219     O      0.593380000000     0.467000000000     0.391000000000     0          
O220     O      0.672380000000     0.435170000000     0.438480000000     0          
O221     O      0.585910000000     0.537910000000     0.463370000000     0          
C222     C      0.917200000000     0.475600000000     0.277990000000     0          
C223     C      0.692100000000     0.456000000000     0.330680000000     0          
H224     H      0.646900000000     0.473700000000     0.323900000000     0          
C225     C      0.653900000000     0.447400000000     0.402500000000     0          
C226     C      0.743300000000     0.448700000000     0.300780000000     0          
H227     H      0.732100000000     0.460500000000     0.273500000000     0          
C228     C      0.866100000000     0.422600000000     0.278160000000     0          
C229     C      0.913600000000     0.537400000000     0.307340000000     0          
H230     H      0.943300000000     0.527700000000     0.331100000000     0          
H231     H      0.930300000000     0.580000000000     0.293700000000     0          
H232     H      0.864900000000     0.544300000000     0.316200000000     0          
C233     C      0.707200000000     0.437600000000     0.370010000000     0          
C234     C      0.809800000000     0.425000000000     0.309820000000     0          
C235     C      0.771600000000     0.411200000000     0.379050000000     0          
H236     H      0.781500000000     0.396800000000     0.406100000000     0          
C237     C      0.823800000000     0.404800000000     0.349210000000     0          
H238     H      0.868700000000     0.386600000000     0.356100000000     0          
O239     O      0.406620000000     0.533000000000     0.391000000000     0          
O240     O      0.327620000000     0.564830000000     0.438480000000     0          
O241     O      0.414090000000     0.462090000000     0.463370000000     0          
C242     C      0.082800000000     0.524400000000     0.277990000000     0          
C243     C      0.307900000000     0.544000000000     0.330680000000     0          
H244     H      0.353100000000     0.526300000000     0.323900000000     0          
C245     C      0.346100000000     0.552600000000     0.402500000000     0          
C246     C      0.256700000000     0.551300000000     0.300780000000     0          
H247     H      0.267900000000     0.539500000000     0.273500000000     0          
C248     C      0.133900000000     0.577400000000     0.278160000000     0          
C249     C      0.086400000000     0.462600000000     0.307340000000     0          
H250     H      0.056700000000     0.472300000000     0.331100000000     0          
H251     H      0.069700000000     0.420000000000     0.293700000000     0          
H252     H      0.135100000000     0.455700000000     0.316200000000     0          
C253     C      0.292800000000     0.562400000000     0.370010000000     0          
C254     C      0.190200000000     0.575000000000     0.309820000000     0          
C255     C      0.228400000000     0.588800000000     0.379050000000     0          
H256     H      0.218500000000     0.603200000000     0.406100000000     0          
C257     C      0.176200000000     0.595200000000     0.349210000000     0          
H258     H      0.131300000000     0.613400000000     0.356100000000     0          
O259     O      0.033000000000     0.906620000000     0.109000000000     0          
O260     O      0.064830000000     0.827620000000     0.061520000000     0          
O261     O      0.962090000000     0.914090000000     0.036630000000     0          
C262     C      0.024400000000     0.582800000000     0.222010000000     0          
C263     C      0.044000000000     0.807900000000     0.169320000000     0          
H264     H      0.026300000000     0.853100000000     0.176100000000     0          
C265     C      0.052600000000     0.846100000000     0.097500000000     0          
C266     C      0.051300000000     0.756700000000     0.199220000000     0          
H267     H      0.039500000000     0.767900000000     0.226500000000     0          
C268     C      0.077400000000     0.633900000000     0.221840000000     0          
C269     C      0.962600000000     0.586400000000     0.192660000000     0          
H270     H      0.972300000000     0.556700000000     0.168900000000     0          
H271     H      0.920000000000     0.569700000000     0.206300000000     0          
H272     H      0.955700000000     0.635100000000     0.183800000000     0          
C273     C      0.062400000000     0.792800000000     0.129990000000     0          
C274     C      0.075000000000     0.690200000000     0.190180000000     0          
C275     C      0.088800000000     0.728400000000     0.120950000000     0          
H276     H      0.103200000000     0.718500000000     0.093900000000     0          
C277     C      0.095200000000     0.676200000000     0.150790000000     0          
H278     H      0.113400000000     0.631300000000     0.143900000000     0          
H279     H      0.166600000000     0.733700000000     0.244100000000     0          
H280     H      0.210700000000     0.689600000000     0.276800000000     0          
H281     H      0.223200000000     0.677100000000     0.229200000000     0          
O282     O      0.967000000000     0.093380000000     0.109000000000     0          
O283     O      0.935170000000     0.172380000000     0.061520000000     0          
O284     O      0.037910000000     0.085910000000     0.036630000000     0          
C285     C      0.975600000000     0.417200000000     0.222010000000     0          
C286     C      0.956000000000     0.192100000000     0.169320000000     0          
H287     H      0.973700000000     0.146900000000     0.176100000000     0          
C288     C      0.947400000000     0.153900000000     0.097500000000     0          
C289     C      0.948700000000     0.243300000000     0.199220000000     0          
H290     H      0.960500000000     0.232100000000     0.226500000000     0          
C291     C      0.922600000000     0.366100000000     0.221840000000     0          
C292     C      0.037400000000     0.413600000000     0.192660000000     0          
H293     H      0.027700000000     0.443300000000     0.168900000000     0          
H294     H      0.080000000000     0.430300000000     0.206300000000     0          
H295     H      0.044300000000     0.364900000000     0.183800000000     0          
C296     C      0.937600000000     0.207200000000     0.129990000000     0          
C297     C      0.925000000000     0.309800000000     0.190180000000     0          
C298     C      0.911200000000     0.271600000000     0.120950000000     0          
H299     H      0.896800000000     0.281500000000     0.093900000000     0          
C300     C      0.904800000000     0.323800000000     0.150790000000     0          
H301     H      0.886600000000     0.368700000000     0.143900000000     0          
H302     H      0.833400000000     0.266300000000     0.244100000000     0          
H303     H      0.789300000000     0.310400000000     0.276800000000     0          
H304     H      0.776800000000     0.322900000000     0.229200000000     0          
O305     O      0.906620000000     0.967000000000     0.109000000000     0          
O306     O      0.827620000000     0.935170000000     0.061520000000     0          
O307     O      0.914090000000     0.037910000000     0.036630000000     0          
C308     C      0.582800000000     0.975600000000     0.222010000000     0          
C309     C      0.807900000000     0.956000000000     0.169320000000     0          
H310     H      0.853100000000     0.973700000000     0.176100000000     0          
C311     C      0.846100000000     0.947400000000     0.097500000000     0          
C312     C      0.756700000000     0.948700000000     0.199220000000     0          
H313     H      0.767900000000     0.960500000000     0.226500000000     0          
C314     C      0.633900000000     0.922600000000     0.221840000000     0          
C315     C      0.586400000000     0.037400000000     0.192660000000     0          
H316     H      0.556700000000     0.027700000000     0.168900000000     0          
H317     H      0.569700000000     0.080000000000     0.206300000000     0          
H318     H      0.635100000000     0.044300000000     0.183800000000     0          
C319     C      0.792800000000     0.937600000000     0.129990000000     0          
C320     C      0.690200000000     0.925000000000     0.190180000000     0          
C321     C      0.728400000000     0.911200000000     0.120950000000     0          
H322     H      0.718500000000     0.896800000000     0.093900000000     0          
C323     C      0.676200000000     0.904800000000     0.150790000000     0          
H324     H      0.631300000000     0.886600000000     0.143900000000     0          
O325     O      0.093380000000     0.033000000000     0.109000000000     0          
O326     O      0.172380000000     0.064830000000     0.061520000000     0          
O327     O      0.085910000000     0.962090000000     0.036630000000     0          
C328     C      0.417200000000     0.024400000000     0.222010000000     0          
C329     C      0.192100000000     0.044000000000     0.169320000000     0          
H330     H      0.146900000000     0.026300000000     0.176100000000     0          
C331     C      0.153900000000     0.052600000000     0.097500000000     0          
C332     C      0.243300000000     0.051300000000     0.199220000000     0          
H333     H      0.232100000000     0.039500000000     0.226500000000     0          
C334     C      0.366100000000     0.077400000000     0.221840000000     0          
C335     C      0.413600000000     0.962600000000     0.192660000000     0          
H336     H      0.443300000000     0.972300000000     0.168900000000     0          
H337     H      0.430300000000     0.920000000000     0.206300000000     0          
H338     H      0.364900000000     0.955700000000     0.183800000000     0          
C339     C      0.207200000000     0.062400000000     0.129990000000     0          
C340     C      0.309800000000     0.075000000000     0.190180000000     0          
C341     C      0.271600000000     0.088800000000     0.120950000000     0          
H342     H      0.281500000000     0.103200000000     0.093900000000     0          
C343     C      0.323800000000     0.095200000000     0.150790000000     0          
H344     H      0.368700000000     0.113400000000     0.143900000000     0          
Zr345    Zr     0.377260000000     0.546940000000     0.500000000000     0          
Zr346    Zr     0.622740000000     0.453060000000     0.500000000000     0          
Zr347    Zr     0.453060000000     0.377260000000     0.500000000000     0          
Zr348    Zr     0.546940000000     0.622740000000     0.500000000000     0          
Zr349    Zr     0.122740000000     0.046940000000     0.000000000000     0          
Zr350    Zr     0.877260000000     0.953060000000     0.000000000000     0          
Zr351    Zr     0.046940000000     0.877260000000     0.000000000000     0          
Zr352    Zr     0.953060000000     0.122740000000     0.000000000000     0          
Zr353    Zr     0.500000000000     0.500000000000     0.574660000000     0          
Zr354    Zr     0.000000000000     0.000000000000     0.925340000000     0          
Zr355    Zr     0.500000000000     0.500000000000     0.425340000000     0          
Zr356    Zr     0.000000000000     0.000000000000     0.074660000000     0          
C357     C      0.528000000000     0.972000000000     0.750000000000     0          
C358     C      0.631700000000     0.868300000000     0.750000000000     0          
C359     C      0.688000000000     0.812000000000     0.750000000000     0          
C360     C      0.472000000000     0.028000000000     0.750000000000     0          
C361     C      0.368300000000     0.131700000000     0.750000000000     0          
C362     C      0.312000000000     0.188000000000     0.750000000000     0          
C363     C      0.028000000000     0.528000000000     0.750000000000     0          
C364     C      0.131700000000     0.631700000000     0.750000000000     0          
C365     C      0.188000000000     0.688000000000     0.750000000000     0          
C366     C      0.972000000000     0.472000000000     0.750000000000     0          
C367     C      0.868300000000     0.368300000000     0.750000000000     0          
C368     C      0.812000000000     0.312000000000     0.750000000000     0          
C369     C      0.472000000000     0.028000000000     0.250000000000     0          
C370     C      0.368300000000     0.131700000000     0.250000000000     0          
C371     C      0.312000000000     0.188000000000     0.250000000000     0          
C372     C      0.528000000000     0.972000000000     0.250000000000     0          
C373     C      0.631700000000     0.868300000000     0.250000000000     0          
C374     C      0.688000000000     0.812000000000     0.250000000000     0          
C375     C      0.972000000000     0.472000000000     0.250000000000     0          
C376     C      0.868300000000     0.368300000000     0.250000000000     0          
C377     C      0.812000000000     0.312000000000     0.250000000000     0          
C378     C      0.028000000000     0.528000000000     0.250000000000     0          
C379     C      0.131700000000     0.631700000000     0.250000000000     0          
C380     C      0.188000000000     0.688000000000     0.250000000000     0          


