data_NIKVAH

_audit_creation_method RASPA-1.0
_audit_creation_date 2020-4-3
_audit_author_name 'Rocio Bueno-Perez'

_cell_length_a    19.5811
_cell_length_b    19.5811
_cell_length_c    19.5811
_cell_angle_alpha 90
_cell_angle_beta  90
_cell_angle_gamma 90
_cell_volume      7507.78

_symmetry_cell_setting          cubic
_symmetry_space_group_name_Hall 'P 1'
_symmetry_space_group_name_H-M  'P 1'
_symmetry_Int_Tables_number     1

_symmetry_equiv_pos_as_xyz 'x,y,z'

loop_
_atom_site_label
_atom_site_type_symbol
_atom_site_fract_x
_atom_site_fract_y
_atom_site_fract_z
_atom_site_charge
Zr1      Zr     0.507600000000     0.492370000000     0.622710000000     0          
O2       O      0.572010000000     0.435530000000     0.552930000000     0          
O3       O      0.930420000000     0.479400000000     0.805200000000     0          
O4       O      0.607700000000     0.500800000000     0.669500000000     0          
O5       O      0.839830000000     0.479100000000     0.884130000000     0          
O6       O      0.685100000000     0.498800000000     0.583830000000     0          
C7       C      0.669590000000     0.497990000000     0.647420000000     0          
C8       C      0.735140000000     0.493730000000     0.688150000000     0          
C9       C      0.867530000000     0.480900000000     0.824990000000     0          
C10      C      0.820110000000     0.484930000000     0.764280000000     0          
N11      N      0.795980000000     0.500100000000     0.657230000000     0          
N12      N      0.846050000000     0.495070000000     0.701690000000     0          
C13      C      0.748280000000     0.483490000000     0.758210000000     0          
H14      H      0.798570000000     0.508410000000     0.601210000000     0          
H15      H      0.704050000000     0.476370000000     0.795390000000     0          
O16      O      0.565800000000     0.565800000000     0.565800000000     0          
Zr1      Zr     0.992400000000     0.507630000000     0.122710000000     0          
O2       O      0.927990000000     0.564470000000     0.052930000000     0          
O3       O      0.569580000000     0.520600000000     0.305200000000     0          
O4       O      0.892300000000     0.499200000000     0.169500000000     0          
O5       O      0.660170000000     0.520900000000     0.384130000000     0          
O6       O      0.814900000000     0.501200000000     0.083830000000     0          
C7       C      0.830410000000     0.502010000000     0.147420000000     0          
C8       C      0.764860000000     0.506270000000     0.188150000000     0          
C9       C      0.632470000000     0.519100000000     0.324990000000     0          
C10      C      0.679890000000     0.515070000000     0.264280000000     0          
N11      N      0.704020000000     0.499900000000     0.157230000000     0          
N12      N      0.653950000000     0.504930000000     0.201690000000     0          
C13      C      0.751720000000     0.516510000000     0.258210000000     0          
H14      H      0.701430000000     0.491590000000     0.101210000000     0          
H15      H      0.795950000000     0.523630000000     0.295390000000     0          
O16      O      0.934200000000     0.434200000000     0.065800000000     0          
Zr1      Zr     0.007600000000     0.007630000000     0.377290000000     0          
O2       O      0.072010000000     0.064470000000     0.447070000000     0          
O3       O      0.430420000000     0.020600000000     0.194800000000     0          
O4       O      0.107700000000     0.999200000000     0.330500000000     0          
O5       O      0.339830000000     0.020900000000     0.115870000000     0          
O6       O      0.185100000000     0.001200000000     0.416170000000     0          
C7       C      0.169590000000     0.002010000000     0.352580000000     0          
C8       C      0.235140000000     0.006270000000     0.311850000000     0          
C9       C      0.367530000000     0.019100000000     0.175010000000     0          
C10      C      0.320110000000     0.015070000000     0.235720000000     0          
N11      N      0.295980000000     0.999900000000     0.342770000000     0          
N12      N      0.346050000000     0.004930000000     0.298310000000     0          
C13      C      0.248280000000     0.016510000000     0.241790000000     0          
H14      H      0.298570000000     0.991590000000     0.398790000000     0          
H15      H      0.204050000000     0.023630000000     0.204610000000     0          
O16      O      0.065800000000     0.934200000000     0.434200000000     0          
Zr1      Zr     0.492400000000     0.992370000000     0.877290000000     0          
O2       O      0.427990000000     0.935530000000     0.947070000000     0          
O3       O      0.069580000000     0.979400000000     0.694800000000     0          
O4       O      0.392300000000     0.000800000000     0.830500000000     0          
O5       O      0.160170000000     0.979100000000     0.615870000000     0          
O6       O      0.314900000000     0.998800000000     0.916170000000     0          
C7       C      0.330410000000     0.997990000000     0.852580000000     0          
C8       C      0.264860000000     0.993730000000     0.811850000000     0          
C9       C      0.132470000000     0.980900000000     0.675010000000     0          
C10      C      0.179890000000     0.984930000000     0.735720000000     0          
N11      N      0.204020000000     0.000100000000     0.842770000000     0          
N12      N      0.153950000000     0.995070000000     0.798310000000     0          
C13      C      0.251720000000     0.983490000000     0.741790000000     0          
H14      H      0.201430000000     0.008410000000     0.898790000000     0          
H15      H      0.295950000000     0.976370000000     0.704610000000     0          
O16      O      0.434200000000     0.065800000000     0.934200000000     0          
Zr1      Zr     0.622710000000     0.507600000000     0.492370000000     0          
O2       O      0.552930000000     0.572010000000     0.435530000000     0          
O3       O      0.805200000000     0.930420000000     0.479400000000     0          
O4       O      0.669500000000     0.607700000000     0.500800000000     0          
O5       O      0.884130000000     0.839830000000     0.479100000000     0          
O6       O      0.583830000000     0.685100000000     0.498800000000     0          
C7       C      0.647420000000     0.669590000000     0.497990000000     0          
C8       C      0.688150000000     0.735140000000     0.493730000000     0          
C9       C      0.824990000000     0.867530000000     0.480900000000     0          
C10      C      0.764280000000     0.820110000000     0.484930000000     0          
N11      N      0.657230000000     0.795980000000     0.500100000000     0          
N12      N      0.701690000000     0.846050000000     0.495070000000     0          
C13      C      0.758210000000     0.748280000000     0.483490000000     0          
H14      H      0.601210000000     0.798570000000     0.508410000000     0          
H15      H      0.795390000000     0.704050000000     0.476370000000     0          
Zr1      Zr     0.877290000000     0.492400000000     0.992370000000     0          
O2       O      0.947070000000     0.427990000000     0.935530000000     0          
O3       O      0.694800000000     0.069580000000     0.979400000000     0          
O4       O      0.830500000000     0.392300000000     0.000800000000     0          
O5       O      0.615870000000     0.160170000000     0.979100000000     0          
O6       O      0.916170000000     0.314900000000     0.998800000000     0          
C7       C      0.852580000000     0.330410000000     0.997990000000     0          
C8       C      0.811850000000     0.264860000000     0.993730000000     0          
C9       C      0.675010000000     0.132470000000     0.980900000000     0          
C10      C      0.735720000000     0.179890000000     0.984930000000     0          
N11      N      0.842770000000     0.204020000000     0.000100000000     0          
N12      N      0.798310000000     0.153950000000     0.995070000000     0          
C13      C      0.741790000000     0.251720000000     0.983490000000     0          
H14      H      0.898790000000     0.201430000000     0.008410000000     0          
H15      H      0.704610000000     0.295950000000     0.976370000000     0          
Zr1      Zr     0.122710000000     0.992400000000     0.507630000000     0          
O2       O      0.052930000000     0.927990000000     0.564470000000     0          
O3       O      0.305200000000     0.569580000000     0.520600000000     0          
O4       O      0.169500000000     0.892300000000     0.499200000000     0          
O5       O      0.384130000000     0.660170000000     0.520900000000     0          
O6       O      0.083830000000     0.814900000000     0.501200000000     0          
C7       C      0.147420000000     0.830410000000     0.502010000000     0          
C8       C      0.188150000000     0.764860000000     0.506270000000     0          
C9       C      0.324990000000     0.632470000000     0.519100000000     0          
C10      C      0.264280000000     0.679890000000     0.515070000000     0          
N11      N      0.157230000000     0.704020000000     0.499900000000     0          
N12      N      0.201690000000     0.653950000000     0.504930000000     0          
C13      C      0.258210000000     0.751720000000     0.516510000000     0          
H14      H      0.101210000000     0.701430000000     0.491590000000     0          
H15      H      0.295390000000     0.795950000000     0.523630000000     0          
Zr1      Zr     0.377290000000     0.007600000000     0.007630000000     0          
O2       O      0.447070000000     0.072010000000     0.064470000000     0          
O3       O      0.194800000000     0.430420000000     0.020600000000     0          
O4       O      0.330500000000     0.107700000000     0.999200000000     0          
O5       O      0.115870000000     0.339830000000     0.020900000000     0          
O6       O      0.416170000000     0.185100000000     0.001200000000     0          
C7       C      0.352580000000     0.169590000000     0.002010000000     0          
C8       C      0.311850000000     0.235140000000     0.006270000000     0          
C9       C      0.175010000000     0.367530000000     0.019100000000     0          
C10      C      0.235720000000     0.320110000000     0.015070000000     0          
N11      N      0.342770000000     0.295980000000     0.999900000000     0          
N12      N      0.298310000000     0.346050000000     0.004930000000     0          
C13      C      0.241790000000     0.248280000000     0.016510000000     0          
H14      H      0.398790000000     0.298570000000     0.991590000000     0          
H15      H      0.204610000000     0.204050000000     0.023630000000     0          
Zr1      Zr     0.492370000000     0.622710000000     0.507600000000     0          
O2       O      0.435530000000     0.552930000000     0.572010000000     0          
O3       O      0.479400000000     0.805200000000     0.930420000000     0          
O4       O      0.500800000000     0.669500000000     0.607700000000     0          
O5       O      0.479100000000     0.884130000000     0.839830000000     0          
O6       O      0.498800000000     0.583830000000     0.685100000000     0          
C7       C      0.497990000000     0.647420000000     0.669590000000     0          
C8       C      0.493730000000     0.688150000000     0.735140000000     0          
C9       C      0.480900000000     0.824990000000     0.867530000000     0          
C10      C      0.484930000000     0.764280000000     0.820110000000     0          
N11      N      0.500100000000     0.657230000000     0.795980000000     0          
N12      N      0.495070000000     0.701690000000     0.846050000000     0          
C13      C      0.483490000000     0.758210000000     0.748280000000     0          
H14      H      0.508410000000     0.601210000000     0.798570000000     0          
H15      H      0.476370000000     0.795390000000     0.704050000000     0          
Zr1      Zr     0.992370000000     0.877290000000     0.492400000000     0          
O2       O      0.935530000000     0.947070000000     0.427990000000     0          
O3       O      0.979400000000     0.694800000000     0.069580000000     0          
O4       O      0.000800000000     0.830500000000     0.392300000000     0          
O5       O      0.979100000000     0.615870000000     0.160170000000     0          
O6       O      0.998800000000     0.916170000000     0.314900000000     0          
C7       C      0.997990000000     0.852580000000     0.330410000000     0          
C8       C      0.993730000000     0.811850000000     0.264860000000     0          
C9       C      0.980900000000     0.675010000000     0.132470000000     0          
C10      C      0.984930000000     0.735720000000     0.179890000000     0          
N11      N      0.000100000000     0.842770000000     0.204020000000     0          
N12      N      0.995070000000     0.798310000000     0.153950000000     0          
C13      C      0.983490000000     0.741790000000     0.251720000000     0          
H14      H      0.008410000000     0.898790000000     0.201430000000     0          
H15      H      0.976370000000     0.704610000000     0.295950000000     0          
Zr1      Zr     0.507630000000     0.122710000000     0.992400000000     0          
O2       O      0.564470000000     0.052930000000     0.927990000000     0          
O3       O      0.520600000000     0.305200000000     0.569580000000     0          
O4       O      0.499200000000     0.169500000000     0.892300000000     0          
O5       O      0.520900000000     0.384130000000     0.660170000000     0          
O6       O      0.501200000000     0.083830000000     0.814900000000     0          
C7       C      0.502010000000     0.147420000000     0.830410000000     0          
C8       C      0.506270000000     0.188150000000     0.764860000000     0          
C9       C      0.519100000000     0.324990000000     0.632470000000     0          
C10      C      0.515070000000     0.264280000000     0.679890000000     0          
N11      N      0.499900000000     0.157230000000     0.704020000000     0          
N12      N      0.504930000000     0.201690000000     0.653950000000     0          
C13      C      0.516510000000     0.258210000000     0.751720000000     0          
H14      H      0.491590000000     0.101210000000     0.701430000000     0          
H15      H      0.523630000000     0.295390000000     0.795950000000     0          
Zr1      Zr     0.007630000000     0.377290000000     0.007600000000     0          
O2       O      0.064470000000     0.447070000000     0.072010000000     0          
O3       O      0.020600000000     0.194800000000     0.430420000000     0          
O4       O      0.999200000000     0.330500000000     0.107700000000     0          
O5       O      0.020900000000     0.115870000000     0.339830000000     0          
O6       O      0.001200000000     0.416170000000     0.185100000000     0          
C7       C      0.002010000000     0.352580000000     0.169590000000     0          
C8       C      0.006270000000     0.311850000000     0.235140000000     0          
C9       C      0.019100000000     0.175010000000     0.367530000000     0          
C10      C      0.015070000000     0.235720000000     0.320110000000     0          
N11      N      0.999900000000     0.342770000000     0.295980000000     0          
N12      N      0.004930000000     0.298310000000     0.346050000000     0          
C13      C      0.016510000000     0.241790000000     0.248280000000     0          
H14      H      0.991590000000     0.398790000000     0.298570000000     0          
H15      H      0.023630000000     0.204610000000     0.204050000000     0          
Zr1      Zr     0.492400000000     0.507630000000     0.377290000000     0          
O2       O      0.427990000000     0.564470000000     0.447070000000     0          
O3       O      0.069580000000     0.520600000000     0.194800000000     0          
O4       O      0.392300000000     0.499200000000     0.330500000000     0          
O5       O      0.160170000000     0.520900000000     0.115870000000     0          
O6       O      0.314900000000     0.501200000000     0.416170000000     0          
C7       C      0.330410000000     0.502010000000     0.352580000000     0          
C8       C      0.264860000000     0.506270000000     0.311850000000     0          
C9       C      0.132470000000     0.519100000000     0.175010000000     0          
C10      C      0.179890000000     0.515070000000     0.235720000000     0          
N11      N      0.204020000000     0.499900000000     0.342770000000     0          
N12      N      0.153950000000     0.504930000000     0.298310000000     0          
C13      C      0.251720000000     0.516510000000     0.241790000000     0          
H14      H      0.201430000000     0.491590000000     0.398790000000     0          
H15      H      0.295950000000     0.523630000000     0.204610000000     0          
O16      O      0.434200000000     0.434200000000     0.434200000000     0          
Zr1      Zr     0.007600000000     0.492370000000     0.877290000000     0          
O2       O      0.072010000000     0.435530000000     0.947070000000     0          
O3       O      0.430420000000     0.479400000000     0.694800000000     0          
O4       O      0.107700000000     0.500800000000     0.830500000000     0          
O5       O      0.339830000000     0.479100000000     0.615870000000     0          
O6       O      0.185100000000     0.498800000000     0.916170000000     0          
C7       C      0.169590000000     0.497990000000     0.852580000000     0          
C8       C      0.235140000000     0.493730000000     0.811850000000     0          
C9       C      0.367530000000     0.480900000000     0.675010000000     0          
C10      C      0.320110000000     0.484930000000     0.735720000000     0          
N11      N      0.295980000000     0.500100000000     0.842770000000     0          
N12      N      0.346050000000     0.495070000000     0.798310000000     0          
C13      C      0.248280000000     0.483490000000     0.741790000000     0          
H14      H      0.298570000000     0.508410000000     0.898790000000     0          
H15      H      0.204050000000     0.476370000000     0.704610000000     0          
O16      O      0.065800000000     0.565800000000     0.934200000000     0          
Zr1      Zr     0.992400000000     0.992370000000     0.622710000000     0          
O2       O      0.927990000000     0.935530000000     0.552930000000     0          
O3       O      0.569580000000     0.979400000000     0.805200000000     0          
O4       O      0.892300000000     0.000800000000     0.669500000000     0          
O5       O      0.660170000000     0.979100000000     0.884130000000     0          
O6       O      0.814900000000     0.998800000000     0.583830000000     0          
C7       C      0.830410000000     0.997990000000     0.647420000000     0          
C8       C      0.764860000000     0.993730000000     0.688150000000     0          
C9       C      0.632470000000     0.980900000000     0.824990000000     0          
C10      C      0.679890000000     0.984930000000     0.764280000000     0          
N11      N      0.704020000000     0.000100000000     0.657230000000     0          
N12      N      0.653950000000     0.995070000000     0.701690000000     0          
C13      C      0.751720000000     0.983490000000     0.758210000000     0          
H14      H      0.701430000000     0.008410000000     0.601210000000     0          
H15      H      0.795950000000     0.976370000000     0.795390000000     0          
O16      O      0.934200000000     0.065800000000     0.565800000000     0          
Zr1      Zr     0.507600000000     0.007630000000     0.122710000000     0          
O2       O      0.572010000000     0.064470000000     0.052930000000     0          
O3       O      0.930420000000     0.020600000000     0.305200000000     0          
O4       O      0.607700000000     0.999200000000     0.169500000000     0          
O5       O      0.839830000000     0.020900000000     0.384130000000     0          
O6       O      0.685100000000     0.001200000000     0.083830000000     0          
C7       C      0.669590000000     0.002010000000     0.147420000000     0          
C8       C      0.735140000000     0.006270000000     0.188150000000     0          
C9       C      0.867530000000     0.019100000000     0.324990000000     0          
C10      C      0.820110000000     0.015070000000     0.264280000000     0          
N11      N      0.795980000000     0.999900000000     0.157230000000     0          
N12      N      0.846050000000     0.004930000000     0.201690000000     0          
C13      C      0.748280000000     0.016510000000     0.258210000000     0          
H14      H      0.798570000000     0.991590000000     0.101210000000     0          
H15      H      0.704050000000     0.023630000000     0.295390000000     0          
O16      O      0.565800000000     0.934200000000     0.065800000000     0          
Zr1      Zr     0.377290000000     0.492400000000     0.507630000000     0          
O2       O      0.447070000000     0.427990000000     0.564470000000     0          
O3       O      0.194800000000     0.069580000000     0.520600000000     0          
O4       O      0.330500000000     0.392300000000     0.499200000000     0          
O5       O      0.115870000000     0.160170000000     0.520900000000     0          
O6       O      0.416170000000     0.314900000000     0.501200000000     0          
C7       C      0.352580000000     0.330410000000     0.502010000000     0          
C8       C      0.311850000000     0.264860000000     0.506270000000     0          
C9       C      0.175010000000     0.132470000000     0.519100000000     0          
C10      C      0.235720000000     0.179890000000     0.515070000000     0          
N11      N      0.342770000000     0.204020000000     0.499900000000     0          
N12      N      0.298310000000     0.153950000000     0.504930000000     0          
C13      C      0.241790000000     0.251720000000     0.516510000000     0          
H14      H      0.398790000000     0.201430000000     0.491590000000     0          
H15      H      0.204610000000     0.295950000000     0.523630000000     0          
Zr1      Zr     0.122710000000     0.507600000000     0.007630000000     0          
O2       O      0.052930000000     0.572010000000     0.064470000000     0          
O3       O      0.305200000000     0.930420000000     0.020600000000     0          
O4       O      0.169500000000     0.607700000000     0.999200000000     0          
O5       O      0.384130000000     0.839830000000     0.020900000000     0          
O6       O      0.083830000000     0.685100000000     0.001200000000     0          
C7       C      0.147420000000     0.669590000000     0.002010000000     0          
C8       C      0.188150000000     0.735140000000     0.006270000000     0          
C9       C      0.324990000000     0.867530000000     0.019100000000     0          
C10      C      0.264280000000     0.820110000000     0.015070000000     0          
N11      N      0.157230000000     0.795980000000     0.999900000000     0          
N12      N      0.201690000000     0.846050000000     0.004930000000     0          
C13      C      0.258210000000     0.748280000000     0.016510000000     0          
H14      H      0.101210000000     0.798570000000     0.991590000000     0          
H15      H      0.295390000000     0.704050000000     0.023630000000     0          
Zr1      Zr     0.877290000000     0.007600000000     0.492370000000     0          
O2       O      0.947070000000     0.072010000000     0.435530000000     0          
O3       O      0.694800000000     0.430420000000     0.479400000000     0          
O4       O      0.830500000000     0.107700000000     0.500800000000     0          
O5       O      0.615870000000     0.339830000000     0.479100000000     0          
O6       O      0.916170000000     0.185100000000     0.498800000000     0          
C7       C      0.852580000000     0.169590000000     0.497990000000     0          
C8       C      0.811850000000     0.235140000000     0.493730000000     0          
C9       C      0.675010000000     0.367530000000     0.480900000000     0          
C10      C      0.735720000000     0.320110000000     0.484930000000     0          
N11      N      0.842770000000     0.295980000000     0.500100000000     0          
N12      N      0.798310000000     0.346050000000     0.495070000000     0          
C13      C      0.741790000000     0.248280000000     0.483490000000     0          
H14      H      0.898790000000     0.298570000000     0.508410000000     0          
H15      H      0.704610000000     0.204050000000     0.476370000000     0          
Zr1      Zr     0.622710000000     0.992400000000     0.992370000000     0          
O2       O      0.552930000000     0.927990000000     0.935530000000     0          
O3       O      0.805200000000     0.569580000000     0.979400000000     0          
O4       O      0.669500000000     0.892300000000     0.000800000000     0          
O5       O      0.884130000000     0.660170000000     0.979100000000     0          
O6       O      0.583830000000     0.814900000000     0.998800000000     0          
C7       C      0.647420000000     0.830410000000     0.997990000000     0          
C8       C      0.688150000000     0.764860000000     0.993730000000     0          
C9       C      0.824990000000     0.632470000000     0.980900000000     0          
C10      C      0.764280000000     0.679890000000     0.984930000000     0          
N11      N      0.657230000000     0.704020000000     0.000100000000     0          
N12      N      0.701690000000     0.653950000000     0.995070000000     0          
C13      C      0.758210000000     0.751720000000     0.983490000000     0          
H14      H      0.601210000000     0.701430000000     0.008410000000     0          
H15      H      0.795390000000     0.795950000000     0.976370000000     0          
Zr1      Zr     0.507630000000     0.377290000000     0.492400000000     0          
O2       O      0.564470000000     0.447070000000     0.427990000000     0          
O3       O      0.520600000000     0.194800000000     0.069580000000     0          
O4       O      0.499200000000     0.330500000000     0.392300000000     0          
O5       O      0.520900000000     0.115870000000     0.160170000000     0          
O6       O      0.501200000000     0.416170000000     0.314900000000     0          
C7       C      0.502010000000     0.352580000000     0.330410000000     0          
C8       C      0.506270000000     0.311850000000     0.264860000000     0          
C9       C      0.519100000000     0.175010000000     0.132470000000     0          
C10      C      0.515070000000     0.235720000000     0.179890000000     0          
N11      N      0.499900000000     0.342770000000     0.204020000000     0          
N12      N      0.504930000000     0.298310000000     0.153950000000     0          
C13      C      0.516510000000     0.241790000000     0.251720000000     0          
H14      H      0.491590000000     0.398790000000     0.201430000000     0          
H15      H      0.523630000000     0.204610000000     0.295950000000     0          
Zr1      Zr     0.007630000000     0.122710000000     0.507600000000     0          
O2       O      0.064470000000     0.052930000000     0.572010000000     0          
O3       O      0.020600000000     0.305200000000     0.930420000000     0          
O4       O      0.999200000000     0.169500000000     0.607700000000     0          
O5       O      0.020900000000     0.384130000000     0.839830000000     0          
O6       O      0.001200000000     0.083830000000     0.685100000000     0          
C7       C      0.002010000000     0.147420000000     0.669590000000     0          
C8       C      0.006270000000     0.188150000000     0.735140000000     0          
C9       C      0.019100000000     0.324990000000     0.867530000000     0          
C10      C      0.015070000000     0.264280000000     0.820110000000     0          
N11      N      0.999900000000     0.157230000000     0.795980000000     0          
N12      N      0.004930000000     0.201690000000     0.846050000000     0          
C13      C      0.016510000000     0.258210000000     0.748280000000     0          
H14      H      0.991590000000     0.101210000000     0.798570000000     0          
H15      H      0.023630000000     0.295390000000     0.704050000000     0          
Zr1      Zr     0.492370000000     0.877290000000     0.007600000000     0          
O2       O      0.435530000000     0.947070000000     0.072010000000     0          
O3       O      0.479400000000     0.694800000000     0.430420000000     0          
O4       O      0.500800000000     0.830500000000     0.107700000000     0          
O5       O      0.479100000000     0.615870000000     0.339830000000     0          
O6       O      0.498800000000     0.916170000000     0.185100000000     0          
C7       C      0.497990000000     0.852580000000     0.169590000000     0          
C8       C      0.493730000000     0.811850000000     0.235140000000     0          
C9       C      0.480900000000     0.675010000000     0.367530000000     0          
C10      C      0.484930000000     0.735720000000     0.320110000000     0          
N11      N      0.500100000000     0.842770000000     0.295980000000     0          
N12      N      0.495070000000     0.798310000000     0.346050000000     0          
C13      C      0.483490000000     0.741790000000     0.248280000000     0          
H14      H      0.508410000000     0.898790000000     0.298570000000     0          
H15      H      0.476370000000     0.704610000000     0.204050000000     0          
Zr1      Zr     0.992370000000     0.622710000000     0.992400000000     0          
O2       O      0.935530000000     0.552930000000     0.927990000000     0          
O3       O      0.979400000000     0.805200000000     0.569580000000     0          
O4       O      0.000800000000     0.669500000000     0.892300000000     0          
O5       O      0.979100000000     0.884130000000     0.660170000000     0          
O6       O      0.998800000000     0.583830000000     0.814900000000     0          
C7       C      0.997990000000     0.647420000000     0.830410000000     0          
C8       C      0.993730000000     0.688150000000     0.764860000000     0          
C9       C      0.980900000000     0.824990000000     0.632470000000     0          
C10      C      0.984930000000     0.764280000000     0.679890000000     0          
N11      N      0.000100000000     0.657230000000     0.704020000000     0          
N12      N      0.995070000000     0.701690000000     0.653950000000     0          
C13      C      0.983490000000     0.758210000000     0.751720000000     0          
H14      H      0.008410000000     0.601210000000     0.701430000000     0          
H15      H      0.976370000000     0.795390000000     0.795950000000     0          


