data_OQUFAJ

_audit_creation_method RASPA-1.0
_audit_creation_date 2020-12-14
_audit_author_name 'Rocio Bueno-Perez'

_cell_length_a    24.2603
_cell_length_b    24.2603
_cell_length_c    15.1465
_cell_angle_alpha 90
_cell_angle_beta  90
_cell_angle_gamma 90
_cell_volume      8914.66

_symmetry_cell_setting          triclinic
_symmetry_space_group_name_Hall 'P 1'
_symmetry_space_group_name_H-M  'P 1'
_symmetry_Int_Tables_number     1

_symmetry_equiv_pos_as_xyz 'x,y,z'

loop_
_atom_site_label
_atom_site_type_symbol
_atom_site_fract_x
_atom_site_fract_y
_atom_site_fract_z
_atom_site_charge
O1       O      0.444900000000     0.148810000000     0.085900000000     0          
O2       O      0.397000000000     0.083100000000     0.161500000000     0          
C3       C      0.297200000000     0.255600000000     0.233700000000     0          
C4       C      0.334400000000     0.266600000000     0.169300000000     0          
C5       C      0.373200000000     0.228800000000     0.141100000000     0          
H6       H      0.407200000000     0.242080000000     0.093690000000     0          
C7       C      0.369900000000     0.175600000000     0.171100000000     0          
C8       C      0.333400000000     0.164600000000     0.236900000000     0          
H9       H      0.332060000000     0.121830000000     0.268000000000     0          
C10      C      0.295800000000     0.203900000000     0.270400000000     0          
C11      C      0.406800000000     0.133500000000     0.138900000000     0          
C12      C      0.247400000000     0.176700000000     0.354500000000     0          
F13      F      0.267700000000     0.126700000000     0.370000000000     0          
F14      F      0.254100000000     0.213300000000     0.419100000000     0          
F15      F      0.199900000000     0.177800000000     0.311000000000     0          
O16      O      0.555100000000     0.851190000000     0.085900000000     0          
O17      O      0.603000000000     0.916900000000     0.161500000000     0          
C18      C      0.702800000000     0.744400000000     0.233700000000     0          
C19      C      0.665600000000     0.733400000000     0.169300000000     0          
C20      C      0.626800000000     0.771200000000     0.141100000000     0          
H21      H      0.592800000000     0.757920000000     0.093690000000     0          
C22      C      0.630100000000     0.824400000000     0.171100000000     0          
C23      C      0.666600000000     0.835400000000     0.236900000000     0          
H24      H      0.667940000000     0.878170000000     0.268000000000     0          
C25      C      0.704200000000     0.796100000000     0.270400000000     0          
C26      C      0.593200000000     0.866500000000     0.138900000000     0          
C27      C      0.752600000000     0.823300000000     0.354500000000     0          
F28      F      0.732300000000     0.873300000000     0.370000000000     0          
F29      F      0.745900000000     0.786700000000     0.419100000000     0          
F30      F      0.800100000000     0.822200000000     0.311000000000     0          
O31      O      0.851190000000     0.444900000000     0.585900000000     0          
O32      O      0.916900000000     0.397000000000     0.661500000000     0          
C33      C      0.744400000000     0.297200000000     0.733700000000     0          
C34      C      0.733400000000     0.334400000000     0.669300000000     0          
C35      C      0.771200000000     0.373200000000     0.641100000000     0          
H36      H      0.757920000000     0.407200000000     0.593690000000     0          
C37      C      0.824400000000     0.369900000000     0.671100000000     0          
C38      C      0.835400000000     0.333400000000     0.736900000000     0          
H39      H      0.878170000000     0.332060000000     0.768000000000     0          
C40      C      0.796100000000     0.295800000000     0.770400000000     0          
C41      C      0.866500000000     0.406800000000     0.638900000000     0          
C42      C      0.823300000000     0.247400000000     0.854500000000     0          
F43      F      0.873300000000     0.267700000000     0.870000000000     0          
F44      F      0.786700000000     0.254100000000     0.919100000000     0          
F45      F      0.822200000000     0.199900000000     0.811000000000     0          
O46      O      0.148810000000     0.555100000000     0.585900000000     0          
O47      O      0.083100000000     0.603000000000     0.661500000000     0          
C48      C      0.255600000000     0.702800000000     0.733700000000     0          
C49      C      0.266600000000     0.665600000000     0.669300000000     0          
C50      C      0.228800000000     0.626800000000     0.641100000000     0          
H51      H      0.242080000000     0.592800000000     0.593690000000     0          
C52      C      0.175600000000     0.630100000000     0.671100000000     0          
C53      C      0.164600000000     0.666600000000     0.736900000000     0          
H54      H      0.121830000000     0.667940000000     0.768000000000     0          
C55      C      0.203900000000     0.704200000000     0.770400000000     0          
C56      C      0.133500000000     0.593200000000     0.638900000000     0          
C57      C      0.176700000000     0.752600000000     0.854500000000     0          
F58      F      0.126700000000     0.732300000000     0.870000000000     0          
F59      F      0.213300000000     0.745900000000     0.919100000000     0          
F60      F      0.177800000000     0.800100000000     0.811000000000     0          
O61      O      0.555100000000     0.148810000000     0.914100000000     0          
O62      O      0.603000000000     0.083100000000     0.838500000000     0          
C63      C      0.702800000000     0.255600000000     0.766300000000     0          
C64      C      0.665600000000     0.266600000000     0.830700000000     0          
C65      C      0.626800000000     0.228800000000     0.858900000000     0          
H66      H      0.592800000000     0.242080000000     0.906310000000     0          
C67      C      0.630100000000     0.175600000000     0.828900000000     0          
C68      C      0.666600000000     0.164600000000     0.763100000000     0          
H69      H      0.667940000000     0.121830000000     0.732000000000     0          
C70      C      0.704200000000     0.203900000000     0.729600000000     0          
C71      C      0.593200000000     0.133500000000     0.861100000000     0          
C72      C      0.752600000000     0.176700000000     0.645500000000     0          
F73      F      0.732300000000     0.126700000000     0.630000000000     0          
F74      F      0.745900000000     0.213300000000     0.580900000000     0          
F75      F      0.800100000000     0.177800000000     0.689000000000     0          
O76      O      0.444900000000     0.851190000000     0.914100000000     0          
O77      O      0.397000000000     0.916900000000     0.838500000000     0          
C78      C      0.297200000000     0.744400000000     0.766300000000     0          
C79      C      0.334400000000     0.733400000000     0.830700000000     0          
C80      C      0.373200000000     0.771200000000     0.858900000000     0          
H81      H      0.407200000000     0.757920000000     0.906310000000     0          
C82      C      0.369900000000     0.824400000000     0.828900000000     0          
C83      C      0.333400000000     0.835400000000     0.763100000000     0          
H84      H      0.332060000000     0.878170000000     0.732000000000     0          
C85      C      0.295800000000     0.796100000000     0.729600000000     0          
C86      C      0.406800000000     0.866500000000     0.861100000000     0          
F87      F      0.373900000000     0.674600000000     0.950100000000     0          
F88      F      0.283000000000     0.667900000000     0.926700000000     0          
F89      F      0.342500000000     0.632400000000     0.826500000000     0          
C90      C      0.333000000000     0.668100000000     0.891200000000     0          
O91      O      0.148810000000     0.444900000000     0.414100000000     0          
O92      O      0.083100000000     0.397000000000     0.338500000000     0          
C93      C      0.255600000000     0.297200000000     0.266300000000     0          
C94      C      0.266600000000     0.334400000000     0.330700000000     0          
C95      C      0.228800000000     0.373200000000     0.358900000000     0          
H96      H      0.242080000000     0.407200000000     0.406310000000     0          
C97      C      0.175600000000     0.369900000000     0.328900000000     0          
C98      C      0.164600000000     0.333400000000     0.263100000000     0          
H99      H      0.121830000000     0.332060000000     0.232000000000     0          
C100     C      0.203900000000     0.295800000000     0.229600000000     0          
C101     C      0.133500000000     0.406800000000     0.361100000000     0          
F102     F      0.325400000000     0.373900000000     0.450100000000     0          
F103     F      0.332100000000     0.283000000000     0.426700000000     0          
F104     F      0.367600000000     0.342500000000     0.326500000000     0          
C105     C      0.331900000000     0.333000000000     0.391200000000     0          
O106     O      0.851190000000     0.555100000000     0.414100000000     0          
O107     O      0.916900000000     0.603000000000     0.338500000000     0          
C108     C      0.744400000000     0.702800000000     0.266300000000     0          
C109     C      0.733400000000     0.665600000000     0.330700000000     0          
C110     C      0.771200000000     0.626800000000     0.358900000000     0          
H111     H      0.757920000000     0.592800000000     0.406310000000     0          
C112     C      0.824400000000     0.630100000000     0.328900000000     0          
C113     C      0.835400000000     0.666600000000     0.263100000000     0          
H114     H      0.878170000000     0.667940000000     0.232000000000     0          
C115     C      0.796100000000     0.704200000000     0.229600000000     0          
C116     C      0.866500000000     0.593200000000     0.361100000000     0          
C117     C      0.823300000000     0.752600000000     0.145500000000     0          
F118     F      0.873300000000     0.732300000000     0.130000000000     0          
F119     F      0.786700000000     0.745900000000     0.080900000000     0          
F120     F      0.822200000000     0.800100000000     0.189000000000     0          
O121     O      0.555100000000     0.851190000000     0.914100000000     0          
O122     O      0.603000000000     0.916900000000     0.838500000000     0          
C123     C      0.702800000000     0.744400000000     0.766300000000     0          
C124     C      0.665600000000     0.733400000000     0.830700000000     0          
C125     C      0.626800000000     0.771200000000     0.858900000000     0          
H126     H      0.592800000000     0.757920000000     0.906310000000     0          
C127     C      0.630100000000     0.824400000000     0.828900000000     0          
C128     C      0.666600000000     0.835400000000     0.763100000000     0          
H129     H      0.667940000000     0.878170000000     0.732000000000     0          
C130     C      0.704200000000     0.796100000000     0.729600000000     0          
C131     C      0.593200000000     0.866500000000     0.861100000000     0          
F132     F      0.626100000000     0.674600000000     0.950100000000     0          
F133     F      0.717000000000     0.667900000000     0.926700000000     0          
F134     F      0.657500000000     0.632400000000     0.826500000000     0          
C135     C      0.667000000000     0.668100000000     0.891200000000     0          
O136     O      0.444900000000     0.148810000000     0.914100000000     0          
O137     O      0.397000000000     0.083100000000     0.838500000000     0          
C138     C      0.297200000000     0.255600000000     0.766300000000     0          
C139     C      0.334400000000     0.266600000000     0.830700000000     0          
C140     C      0.373200000000     0.228800000000     0.858900000000     0          
H141     H      0.407200000000     0.242080000000     0.906310000000     0          
C142     C      0.369900000000     0.175600000000     0.828900000000     0          
C143     C      0.333400000000     0.164600000000     0.763100000000     0          
H144     H      0.332060000000     0.121830000000     0.732000000000     0          
C145     C      0.295800000000     0.203900000000     0.729600000000     0          
C146     C      0.406800000000     0.133500000000     0.861100000000     0          
F147     F      0.373900000000     0.325400000000     0.950100000000     0          
F148     F      0.283000000000     0.332100000000     0.926700000000     0          
F149     F      0.342500000000     0.367600000000     0.826500000000     0          
C150     C      0.333000000000     0.331900000000     0.891200000000     0          
O151     O      0.148810000000     0.555100000000     0.414100000000     0          
O152     O      0.083100000000     0.603000000000     0.338500000000     0          
C153     C      0.255600000000     0.702800000000     0.266300000000     0          
C154     C      0.266600000000     0.665600000000     0.330700000000     0          
C155     C      0.228800000000     0.626800000000     0.358900000000     0          
H156     H      0.242080000000     0.592800000000     0.406310000000     0          
C157     C      0.175600000000     0.630100000000     0.328900000000     0          
C158     C      0.164600000000     0.666600000000     0.263100000000     0          
H159     H      0.121830000000     0.667940000000     0.232000000000     0          
C160     C      0.203900000000     0.704200000000     0.229600000000     0          
C161     C      0.133500000000     0.593200000000     0.361100000000     0          
C162     C      0.176700000000     0.752600000000     0.145500000000     0          
F163     F      0.126700000000     0.732300000000     0.130000000000     0          
F164     F      0.213300000000     0.745900000000     0.080900000000     0          
F165     F      0.177800000000     0.800100000000     0.189000000000     0          
O166     O      0.851190000000     0.444900000000     0.414100000000     0          
O167     O      0.916900000000     0.397000000000     0.338500000000     0          
C168     C      0.744400000000     0.297200000000     0.266300000000     0          
C169     C      0.733400000000     0.334400000000     0.330700000000     0          
C170     C      0.771200000000     0.373200000000     0.358900000000     0          
H171     H      0.757920000000     0.407200000000     0.406310000000     0          
C172     C      0.824400000000     0.369900000000     0.328900000000     0          
C173     C      0.835400000000     0.333400000000     0.263100000000     0          
H174     H      0.878170000000     0.332060000000     0.232000000000     0          
C175     C      0.796100000000     0.295800000000     0.229600000000     0          
C176     C      0.866500000000     0.406800000000     0.361100000000     0          
F177     F      0.674600000000     0.373900000000     0.450100000000     0          
F178     F      0.667900000000     0.283000000000     0.426700000000     0          
F179     F      0.632400000000     0.342500000000     0.326500000000     0          
C180     C      0.668100000000     0.333000000000     0.391200000000     0          
O181     O      0.444900000000     0.851190000000     0.085900000000     0          
O182     O      0.397000000000     0.916900000000     0.161500000000     0          
C183     C      0.297200000000     0.744400000000     0.233700000000     0          
C184     C      0.334400000000     0.733400000000     0.169300000000     0          
C185     C      0.373200000000     0.771200000000     0.141100000000     0          
H186     H      0.407200000000     0.757920000000     0.093690000000     0          
C187     C      0.369900000000     0.824400000000     0.171100000000     0          
C188     C      0.333400000000     0.835400000000     0.236900000000     0          
H189     H      0.332060000000     0.878170000000     0.268000000000     0          
C190     C      0.295800000000     0.796100000000     0.270400000000     0          
C191     C      0.406800000000     0.866500000000     0.138900000000     0          
C192     C      0.247400000000     0.823300000000     0.354500000000     0          
F193     F      0.267700000000     0.873300000000     0.370000000000     0          
F194     F      0.254100000000     0.786700000000     0.419100000000     0          
F195     F      0.199900000000     0.822200000000     0.311000000000     0          
O196     O      0.555100000000     0.148810000000     0.085900000000     0          
O197     O      0.603000000000     0.083100000000     0.161500000000     0          
C198     C      0.702800000000     0.255600000000     0.233700000000     0          
C199     C      0.665600000000     0.266600000000     0.169300000000     0          
C200     C      0.626800000000     0.228800000000     0.141100000000     0          
H201     H      0.592800000000     0.242080000000     0.093690000000     0          
C202     C      0.630100000000     0.175600000000     0.171100000000     0          
C203     C      0.666600000000     0.164600000000     0.236900000000     0          
H204     H      0.667940000000     0.121830000000     0.268000000000     0          
C205     C      0.704200000000     0.203900000000     0.270400000000     0          
C206     C      0.593200000000     0.133500000000     0.138900000000     0          
F207     F      0.626100000000     0.325400000000     0.049900000000     0          
F208     F      0.717000000000     0.332100000000     0.073300000000     0          
F209     F      0.657500000000     0.367600000000     0.173500000000     0          
C210     C      0.667000000000     0.331900000000     0.108800000000     0          
O211     O      0.851190000000     0.555100000000     0.585900000000     0          
O212     O      0.916900000000     0.603000000000     0.661500000000     0          
C213     C      0.744400000000     0.702800000000     0.733700000000     0          
C214     C      0.733400000000     0.665600000000     0.669300000000     0          
C215     C      0.771200000000     0.626800000000     0.641100000000     0          
H216     H      0.757920000000     0.592800000000     0.593690000000     0          
C217     C      0.824400000000     0.630100000000     0.671100000000     0          
C218     C      0.835400000000     0.666600000000     0.736900000000     0          
H219     H      0.878170000000     0.667940000000     0.768000000000     0          
C220     C      0.796100000000     0.704200000000     0.770400000000     0          
C221     C      0.866500000000     0.593200000000     0.638900000000     0          
C222     C      0.823300000000     0.752600000000     0.854500000000     0          
F223     F      0.873300000000     0.732300000000     0.870000000000     0          
F224     F      0.786700000000     0.745900000000     0.919100000000     0          
F225     F      0.822200000000     0.800100000000     0.811000000000     0          
O226     O      0.148810000000     0.444900000000     0.585900000000     0          
O227     O      0.083100000000     0.397000000000     0.661500000000     0          
C228     C      0.255600000000     0.297200000000     0.733700000000     0          
C229     C      0.266600000000     0.334400000000     0.669300000000     0          
C230     C      0.228800000000     0.373200000000     0.641100000000     0          
H231     H      0.242080000000     0.407200000000     0.593690000000     0          
C232     C      0.175600000000     0.369900000000     0.671100000000     0          
C233     C      0.164600000000     0.333400000000     0.736900000000     0          
H234     H      0.121830000000     0.332060000000     0.768000000000     0          
C235     C      0.203900000000     0.295800000000     0.770400000000     0          
C236     C      0.133500000000     0.406800000000     0.638900000000     0          
C237     C      0.176700000000     0.247400000000     0.854500000000     0          
F238     F      0.126700000000     0.267700000000     0.870000000000     0          
F239     F      0.213300000000     0.254100000000     0.919100000000     0          
F240     F      0.177800000000     0.199900000000     0.811000000000     0          
Zr241    Zr     0.500000000000     0.100580000000     0.000000000000     0          
Zr242    Zr     0.500000000000     0.899420000000     0.000000000000     0          
Zr243    Zr     0.899420000000     0.500000000000     0.500000000000     0          
Zr244    Zr     0.100580000000     0.500000000000     0.500000000000     0          
Zr245    Zr     0.427190000000     0.000000000000     0.116080000000     0          
Zr246    Zr     0.572810000000     0.000000000000     0.116080000000     0          
Zr247    Zr     0.000000000000     0.427190000000     0.616080000000     0          
Zr248    Zr     0.000000000000     0.572810000000     0.616080000000     0          
Zr249    Zr     0.572810000000     0.000000000000     0.883920000000     0          
Zr250    Zr     0.427190000000     0.000000000000     0.883920000000     0          
Zr251    Zr     0.000000000000     0.427190000000     0.383920000000     0          
Zr252    Zr     0.000000000000     0.572810000000     0.383920000000     0          
O253     O      0.426100000000     0.050100000000     0.000000000000     0          
O254     O      0.573900000000     0.949900000000     0.000000000000     0          
O255     O      0.949900000000     0.426100000000     0.500000000000     0          
O256     O      0.050100000000     0.573900000000     0.500000000000     0          
O257     O      0.573900000000     0.050100000000     0.000000000000     0          
O258     O      0.426100000000     0.949900000000     0.000000000000     0          
O259     O      0.050100000000     0.426100000000     0.500000000000     0          
O260     O      0.949900000000     0.573900000000     0.500000000000     0          
O261     O      0.500000000000     0.048500000000     0.114400000000     0          
O262     O      0.500000000000     0.951500000000     0.114400000000     0          
O263     O      0.951500000000     0.500000000000     0.614400000000     0          
O264     O      0.048500000000     0.500000000000     0.614400000000     0          
O265     O      0.500000000000     0.048500000000     0.885600000000     0          
O266     O      0.500000000000     0.951500000000     0.885600000000     0          
O267     O      0.048500000000     0.500000000000     0.385600000000     0          
O268     O      0.951500000000     0.500000000000     0.385600000000     0          
H269     H      0.334600000000     0.308660000000     0.135740000000     0          
H270     H      0.665400000000     0.691340000000     0.135740000000     0          
H271     H      0.691340000000     0.334600000000     0.635740000000     0          
H272     H      0.308660000000     0.665400000000     0.635740000000     0          
H273     H      0.665400000000     0.308660000000     0.864260000000     0          
H274     H      0.265220000000     0.805760000000     0.674590000000     0          
H275     H      0.194240000000     0.265220000000     0.174590000000     0          
H276     H      0.691340000000     0.665400000000     0.364260000000     0          
H277     H      0.734780000000     0.805760000000     0.674590000000     0          
H278     H      0.265220000000     0.194240000000     0.674590000000     0          
H279     H      0.308660000000     0.665400000000     0.364260000000     0          
H280     H      0.805760000000     0.265220000000     0.174590000000     0          
H281     H      0.334600000000     0.691340000000     0.135740000000     0          
H282     H      0.734780000000     0.194240000000     0.325410000000     0          
H283     H      0.691340000000     0.665400000000     0.635740000000     0          
H284     H      0.308660000000     0.334600000000     0.635740000000     0          


