data_OQUFAJ01

_audit_creation_method RASPA-1.0
_audit_creation_date 2020-12-14
_audit_author_name 'Rocio Bueno-Perez'

_cell_length_a    24.4118
_cell_length_b    24.4118
_cell_length_c    14.6499
_cell_angle_alpha 90
_cell_angle_beta  90
_cell_angle_gamma 90
_cell_volume      8730.4

_symmetry_cell_setting          triclinic
_symmetry_space_group_name_Hall 'P 1'
_symmetry_space_group_name_H-M  'P 1'
_symmetry_Int_Tables_number     1

_symmetry_equiv_pos_as_xyz 'x,y,z'

loop_
_atom_site_label
_atom_site_type_symbol
_atom_site_fract_x
_atom_site_fract_y
_atom_site_fract_z
_atom_site_charge
O1       O      0.055080000000     0.352700000000     0.090200000000     0          
O2       O      0.101700000000     0.416490000000     0.167700000000     0          
C3       C      0.204600000000     0.247100000000     0.234700000000     0          
C4       C      0.203100000000     0.299100000000     0.274200000000     0          
C5       C      0.166300000000     0.336500000000     0.245400000000     0          
H6       H      0.164790000000     0.378710000000     0.278590000000     0          
C7       C      0.130500000000     0.325100000000     0.177000000000     0          
C8       C      0.129300000000     0.273300000000     0.141000000000     0          
H9       H      0.097050000000     0.262020000000     0.087960000000     0          
C10      C      0.166500000000     0.235600000000     0.168600000000     0          
C11      C      0.092300000000     0.368000000000     0.142200000000     0          
F12      F      0.155100000000     0.134800000000     0.171700000000     0          
F13      F      0.209900000000     0.165000000000     0.068500000000     0          
F14      F      0.122700000000     0.173900000000     0.049200000000     0          
C15      C      0.161400000000     0.176600000000     0.111200000000     0          
F16      F      0.702900000000     0.672400000000     0.320900000000     0          
F17      F      0.751100000000     0.713300000000     0.424700000000     0          
F18      F      0.768400000000     0.629400000000     0.390500000000     0          
O19      O      0.944920000000     0.647300000000     0.090200000000     0          
O20      O      0.898300000000     0.583510000000     0.167700000000     0          
C21      C      0.795400000000     0.752900000000     0.234700000000     0          
C22      C      0.796900000000     0.700900000000     0.274200000000     0          
C23      C      0.833700000000     0.663500000000     0.245400000000     0          
H24      H      0.835210000000     0.621290000000     0.278590000000     0          
C25      C      0.869500000000     0.674900000000     0.177000000000     0          
C26      C      0.870700000000     0.726700000000     0.141000000000     0          
H27      H      0.902950000000     0.737980000000     0.087960000000     0          
C28      C      0.833500000000     0.764400000000     0.168600000000     0          
C29      C      0.907700000000     0.632000000000     0.142200000000     0          
C30      C      0.754300000000     0.677300000000     0.354500000000     0          
O31      O      0.647300000000     0.055080000000     0.590200000000     0          
O32      O      0.583510000000     0.101700000000     0.667700000000     0          
C33      C      0.752900000000     0.204600000000     0.734700000000     0          
C34      C      0.700900000000     0.203100000000     0.774200000000     0          
C35      C      0.663500000000     0.166300000000     0.745400000000     0          
H36      H      0.621290000000     0.164790000000     0.778590000000     0          
C37      C      0.674900000000     0.130500000000     0.677000000000     0          
C38      C      0.726700000000     0.129300000000     0.641000000000     0          
H39      H      0.737980000000     0.097050000000     0.587960000000     0          
C40      C      0.764400000000     0.166500000000     0.668600000000     0          
C41      C      0.632000000000     0.092300000000     0.642200000000     0          
F42      F      0.865200000000     0.155100000000     0.671700000000     0          
F43      F      0.835000000000     0.209900000000     0.568500000000     0          
F44      F      0.826100000000     0.122700000000     0.549200000000     0          
C45      C      0.823400000000     0.161400000000     0.611200000000     0          
F46      F      0.327600000000     0.702900000000     0.820900000000     0          
F47      F      0.286700000000     0.751100000000     0.924700000000     0          
F48      F      0.370600000000     0.768400000000     0.890500000000     0          
O49      O      0.352700000000     0.944920000000     0.590200000000     0          
O50      O      0.416490000000     0.898300000000     0.667700000000     0          
C51      C      0.247100000000     0.795400000000     0.734700000000     0          
C52      C      0.299100000000     0.796900000000     0.774200000000     0          
C53      C      0.336500000000     0.833700000000     0.745400000000     0          
H54      H      0.378710000000     0.835210000000     0.778590000000     0          
C55      C      0.325100000000     0.869500000000     0.677000000000     0          
C56      C      0.273300000000     0.870700000000     0.641000000000     0          
H57      H      0.262020000000     0.902950000000     0.587960000000     0          
C58      C      0.235600000000     0.833500000000     0.668600000000     0          
C59      C      0.368000000000     0.907700000000     0.642200000000     0          
C60      C      0.322700000000     0.754300000000     0.854500000000     0          
F61      F      0.702900000000     0.327600000000     0.679100000000     0          
F62      F      0.751100000000     0.286700000000     0.575300000000     0          
F63      F      0.768400000000     0.370600000000     0.609500000000     0          
O64      O      0.944920000000     0.352700000000     0.909800000000     0          
O65      O      0.898300000000     0.416490000000     0.832300000000     0          
C66      C      0.795400000000     0.247100000000     0.765300000000     0          
C67      C      0.796900000000     0.299100000000     0.725800000000     0          
C68      C      0.833700000000     0.336500000000     0.754600000000     0          
H69      H      0.835210000000     0.378710000000     0.721410000000     0          
C70      C      0.869500000000     0.325100000000     0.823000000000     0          
C71      C      0.870700000000     0.273300000000     0.859000000000     0          
H72      H      0.902950000000     0.262020000000     0.912040000000     0          
C73      C      0.833500000000     0.235600000000     0.831400000000     0          
C74      C      0.907700000000     0.368000000000     0.857800000000     0          
C75      C      0.754300000000     0.322700000000     0.645500000000     0          
O76      O      0.055080000000     0.647300000000     0.909800000000     0          
O77      O      0.101700000000     0.583510000000     0.832300000000     0          
C78      C      0.204600000000     0.752900000000     0.765300000000     0          
C79      C      0.203100000000     0.700900000000     0.725800000000     0          
C80      C      0.166300000000     0.663500000000     0.754600000000     0          
H81      H      0.164790000000     0.621290000000     0.721410000000     0          
C82      C      0.130500000000     0.674900000000     0.823000000000     0          
C83      C      0.129300000000     0.726700000000     0.859000000000     0          
H84      H      0.097050000000     0.737980000000     0.912040000000     0          
C85      C      0.166500000000     0.764400000000     0.831400000000     0          
C86      C      0.092300000000     0.632000000000     0.857800000000     0          
F87      F      0.155100000000     0.865200000000     0.828300000000     0          
F88      F      0.209900000000     0.835000000000     0.931500000000     0          
F89      F      0.122700000000     0.826100000000     0.950800000000     0          
C90      C      0.161400000000     0.823400000000     0.888800000000     0          
F91      F      0.327600000000     0.297100000000     0.179100000000     0          
F92      F      0.286700000000     0.248900000000     0.075300000000     0          
F93      F      0.370600000000     0.231600000000     0.109500000000     0          
O94      O      0.352700000000     0.055080000000     0.409800000000     0          
O95      O      0.416490000000     0.101700000000     0.332300000000     0          
C96      C      0.247100000000     0.204600000000     0.265300000000     0          
C97      C      0.299100000000     0.203100000000     0.225800000000     0          
C98      C      0.336500000000     0.166300000000     0.254600000000     0          
H99      H      0.378710000000     0.164790000000     0.221410000000     0          
C100     C      0.325100000000     0.130500000000     0.323000000000     0          
C101     C      0.273300000000     0.129300000000     0.359000000000     0          
H102     H      0.262020000000     0.097050000000     0.412040000000     0          
C103     C      0.235600000000     0.166500000000     0.331400000000     0          
C104     C      0.368000000000     0.092300000000     0.357800000000     0          
C105     C      0.322700000000     0.245700000000     0.145500000000     0          
F106     F      0.672400000000     0.702900000000     0.179100000000     0          
F107     F      0.713300000000     0.751100000000     0.075300000000     0          
F108     F      0.629400000000     0.768400000000     0.109500000000     0          
O109     O      0.647300000000     0.944920000000     0.409800000000     0          
O110     O      0.583510000000     0.898300000000     0.332300000000     0          
C111     C      0.752900000000     0.795400000000     0.265300000000     0          
C112     C      0.700900000000     0.796900000000     0.225800000000     0          
C113     C      0.663500000000     0.833700000000     0.254600000000     0          
H114     H      0.621290000000     0.835210000000     0.221410000000     0          
C115     C      0.674900000000     0.869500000000     0.323000000000     0          
C116     C      0.726700000000     0.870700000000     0.359000000000     0          
H117     H      0.737980000000     0.902950000000     0.412040000000     0          
C118     C      0.764400000000     0.833500000000     0.331400000000     0          
C119     C      0.632000000000     0.907700000000     0.357800000000     0          
C120     C      0.677300000000     0.754300000000     0.145500000000     0          
O121     O      0.944920000000     0.647300000000     0.909800000000     0          
O122     O      0.898300000000     0.583510000000     0.832300000000     0          
C123     C      0.795400000000     0.752900000000     0.765300000000     0          
C124     C      0.796900000000     0.700900000000     0.725800000000     0          
C125     C      0.833700000000     0.663500000000     0.754600000000     0          
H126     H      0.835210000000     0.621290000000     0.721410000000     0          
C127     C      0.869500000000     0.674900000000     0.823000000000     0          
C128     C      0.870700000000     0.726700000000     0.859000000000     0          
H129     H      0.902950000000     0.737980000000     0.912040000000     0          
C130     C      0.833500000000     0.764400000000     0.831400000000     0          
C131     C      0.907700000000     0.632000000000     0.857800000000     0          
F132     F      0.844900000000     0.865200000000     0.828300000000     0          
F133     F      0.790100000000     0.835000000000     0.931500000000     0          
F134     F      0.877300000000     0.826100000000     0.950800000000     0          
C135     C      0.838600000000     0.823400000000     0.888800000000     0          
O136     O      0.055080000000     0.352700000000     0.909800000000     0          
O137     O      0.101700000000     0.416490000000     0.832300000000     0          
C138     C      0.204600000000     0.247100000000     0.765300000000     0          
C139     C      0.203100000000     0.299100000000     0.725800000000     0          
C140     C      0.166300000000     0.336500000000     0.754600000000     0          
H141     H      0.164790000000     0.378710000000     0.721410000000     0          
C142     C      0.130500000000     0.325100000000     0.823000000000     0          
C143     C      0.129300000000     0.273300000000     0.859000000000     0          
H144     H      0.097050000000     0.262020000000     0.912040000000     0          
C145     C      0.166500000000     0.235600000000     0.831400000000     0          
C146     C      0.092300000000     0.368000000000     0.857800000000     0          
F147     F      0.155100000000     0.134800000000     0.828300000000     0          
F148     F      0.209900000000     0.165000000000     0.931500000000     0          
F149     F      0.122700000000     0.173900000000     0.950800000000     0          
C150     C      0.161400000000     0.176600000000     0.888800000000     0          
F151     F      0.327600000000     0.702900000000     0.179100000000     0          
F152     F      0.286700000000     0.751100000000     0.075300000000     0          
F153     F      0.370600000000     0.768400000000     0.109500000000     0          
O154     O      0.352700000000     0.944920000000     0.409800000000     0          
O155     O      0.416490000000     0.898300000000     0.332300000000     0          
C156     C      0.247100000000     0.795400000000     0.265300000000     0          
C157     C      0.299100000000     0.796900000000     0.225800000000     0          
C158     C      0.336500000000     0.833700000000     0.254600000000     0          
H159     H      0.378710000000     0.835210000000     0.221410000000     0          
C160     C      0.325100000000     0.869500000000     0.323000000000     0          
C161     C      0.273300000000     0.870700000000     0.359000000000     0          
H162     H      0.262020000000     0.902950000000     0.412040000000     0          
C163     C      0.235600000000     0.833500000000     0.331400000000     0          
C164     C      0.368000000000     0.907700000000     0.357800000000     0          
C165     C      0.322700000000     0.754300000000     0.145500000000     0          
F166     F      0.672400000000     0.297100000000     0.179100000000     0          
F167     F      0.713300000000     0.248900000000     0.075300000000     0          
F168     F      0.629400000000     0.231600000000     0.109500000000     0          
O169     O      0.647300000000     0.055080000000     0.409800000000     0          
O170     O      0.583510000000     0.101700000000     0.332300000000     0          
C171     C      0.752900000000     0.204600000000     0.265300000000     0          
C172     C      0.700900000000     0.203100000000     0.225800000000     0          
C173     C      0.663500000000     0.166300000000     0.254600000000     0          
H174     H      0.621290000000     0.164790000000     0.221410000000     0          
C175     C      0.674900000000     0.130500000000     0.323000000000     0          
C176     C      0.726700000000     0.129300000000     0.359000000000     0          
H177     H      0.737980000000     0.097050000000     0.412040000000     0          
C178     C      0.764400000000     0.166500000000     0.331400000000     0          
C179     C      0.632000000000     0.092300000000     0.357800000000     0          
C180     C      0.677300000000     0.245700000000     0.145500000000     0          
F181     F      0.297100000000     0.672400000000     0.320900000000     0          
F182     F      0.248900000000     0.713300000000     0.424700000000     0          
F183     F      0.231600000000     0.629400000000     0.390500000000     0          
O184     O      0.055080000000     0.647300000000     0.090200000000     0          
O185     O      0.101700000000     0.583510000000     0.167700000000     0          
C186     C      0.204600000000     0.752900000000     0.234700000000     0          
C187     C      0.203100000000     0.700900000000     0.274200000000     0          
C188     C      0.166300000000     0.663500000000     0.245400000000     0          
H189     H      0.164790000000     0.621290000000     0.278590000000     0          
C190     C      0.130500000000     0.674900000000     0.177000000000     0          
C191     C      0.129300000000     0.726700000000     0.141000000000     0          
H192     H      0.097050000000     0.737980000000     0.087960000000     0          
C193     C      0.166500000000     0.764400000000     0.168600000000     0          
C194     C      0.092300000000     0.632000000000     0.142200000000     0          
C195     C      0.245700000000     0.677300000000     0.354500000000     0          
O196     O      0.944920000000     0.352700000000     0.090200000000     0          
O197     O      0.898300000000     0.416490000000     0.167700000000     0          
C198     C      0.795400000000     0.247100000000     0.234700000000     0          
C199     C      0.796900000000     0.299100000000     0.274200000000     0          
C200     C      0.833700000000     0.336500000000     0.245400000000     0          
H201     H      0.835210000000     0.378710000000     0.278590000000     0          
C202     C      0.869500000000     0.325100000000     0.177000000000     0          
C203     C      0.870700000000     0.273300000000     0.141000000000     0          
H204     H      0.902950000000     0.262020000000     0.087960000000     0          
C205     C      0.833500000000     0.235600000000     0.168600000000     0          
C206     C      0.907700000000     0.368000000000     0.142200000000     0          
F207     F      0.844900000000     0.134800000000     0.171700000000     0          
F208     F      0.790100000000     0.165000000000     0.068500000000     0          
F209     F      0.877300000000     0.173900000000     0.049200000000     0          
C210     C      0.838600000000     0.176600000000     0.111200000000     0          
O211     O      0.647300000000     0.944920000000     0.590200000000     0          
O212     O      0.583510000000     0.898300000000     0.667700000000     0          
C213     C      0.752900000000     0.795400000000     0.734700000000     0          
C214     C      0.700900000000     0.796900000000     0.774200000000     0          
C215     C      0.663500000000     0.833700000000     0.745400000000     0          
H216     H      0.621290000000     0.835210000000     0.778590000000     0          
C217     C      0.674900000000     0.869500000000     0.677000000000     0          
C218     C      0.726700000000     0.870700000000     0.641000000000     0          
H219     H      0.737980000000     0.902950000000     0.587960000000     0          
C220     C      0.764400000000     0.833500000000     0.668600000000     0          
C221     C      0.632000000000     0.907700000000     0.642200000000     0          
F222     F      0.865200000000     0.844900000000     0.671700000000     0          
F223     F      0.835000000000     0.790100000000     0.568500000000     0          
F224     F      0.826100000000     0.877300000000     0.549200000000     0          
C225     C      0.823400000000     0.838600000000     0.611200000000     0          
O226     O      0.352700000000     0.055080000000     0.590200000000     0          
O227     O      0.416490000000     0.101700000000     0.667700000000     0          
C228     C      0.247100000000     0.204600000000     0.734700000000     0          
C229     C      0.299100000000     0.203100000000     0.774200000000     0          
C230     C      0.336500000000     0.166300000000     0.745400000000     0          
H231     H      0.378710000000     0.164790000000     0.778590000000     0          
C232     C      0.325100000000     0.130500000000     0.677000000000     0          
C233     C      0.273300000000     0.129300000000     0.641000000000     0          
H234     H      0.262020000000     0.097050000000     0.587960000000     0          
C235     C      0.235600000000     0.166500000000     0.668600000000     0          
C236     C      0.368000000000     0.092300000000     0.642200000000     0          
F237     F      0.134800000000     0.155100000000     0.671700000000     0          
F238     F      0.165000000000     0.209900000000     0.568500000000     0          
F239     F      0.173900000000     0.122700000000     0.549200000000     0          
C240     C      0.176600000000     0.161400000000     0.611200000000     0          
Zr241    Zr     0.000000000000     0.399720000000     0.000000000000     0          
Zr242    Zr     0.000000000000     0.600280000000     0.000000000000     0          
Zr243    Zr     0.600280000000     0.000000000000     0.500000000000     0          
Zr244    Zr     0.399720000000     0.000000000000     0.500000000000     0          
Zr245    Zr     0.072190000000     0.500000000000     0.120210000000     0          
Zr246    Zr     0.927810000000     0.500000000000     0.120210000000     0          
Zr247    Zr     0.500000000000     0.072190000000     0.620210000000     0          
Zr248    Zr     0.500000000000     0.927810000000     0.620210000000     0          
Zr249    Zr     0.927810000000     0.500000000000     0.879790000000     0          
Zr250    Zr     0.072190000000     0.500000000000     0.879790000000     0          
Zr251    Zr     0.500000000000     0.072190000000     0.379790000000     0          
Zr252    Zr     0.500000000000     0.927810000000     0.379790000000     0          
O253     O      0.073300000000     0.450300000000     0.000000000000     0          
O254     O      0.926700000000     0.549700000000     0.000000000000     0          
O255     O      0.549700000000     0.073300000000     0.500000000000     0          
O256     O      0.450300000000     0.926700000000     0.500000000000     0          
O257     O      0.926700000000     0.450300000000     0.000000000000     0          
O258     O      0.073300000000     0.549700000000     0.000000000000     0          
O259     O      0.450300000000     0.073300000000     0.500000000000     0          
O260     O      0.549700000000     0.926700000000     0.500000000000     0          
O261     O      0.000000000000     0.451500000000     0.120500000000     0          
O262     O      0.000000000000     0.548500000000     0.120500000000     0          
O263     O      0.548500000000     0.000000000000     0.620500000000     0          
O264     O      0.451500000000     0.000000000000     0.620500000000     0          
O265     O      0.000000000000     0.451500000000     0.879500000000     0          
O266     O      0.000000000000     0.548500000000     0.879500000000     0          
O267     O      0.451500000000     0.000000000000     0.379500000000     0          
O268     O      0.548500000000     0.000000000000     0.379500000000     0          
H269     H      0.233050000000     0.310090000000     0.331020000000     0          
H270     H      0.834420000000     0.806610000000     0.135350000000     0          
H271     H      0.689910000000     0.233050000000     0.831020000000     0          
H272     H      0.193390000000     0.834420000000     0.635350000000     0          
H273     H      0.834420000000     0.193390000000     0.864650000000     0          
H274     H      0.233050000000     0.689910000000     0.668980000000     0          
H275     H      0.193390000000     0.165580000000     0.364650000000     0          
H276     H      0.806610000000     0.834420000000     0.364650000000     0          
H277     H      0.766950000000     0.689910000000     0.668980000000     0          
H278     H      0.233050000000     0.310090000000     0.668980000000     0          
H279     H      0.193390000000     0.834420000000     0.364650000000     0          
H280     H      0.806610000000     0.165580000000     0.364650000000     0          
H281     H      0.165580000000     0.806610000000     0.135350000000     0          
H282     H      0.766950000000     0.310090000000     0.331020000000     0          
H283     H      0.689910000000     0.766950000000     0.831020000000     0          
H284     H      0.310090000000     0.233050000000     0.831020000000     0          


