data_WOKFEK

_audit_creation_method RASPA-1.0
_audit_creation_date 2020-11-2
_audit_author_name 'Rocio Bueno-Perez'

_cell_length_a    33.102
_cell_length_b    33.102
_cell_length_c    21.711
_cell_angle_alpha 90
_cell_angle_beta  90
_cell_angle_gamma 90
_cell_volume      23789.7

_symmetry_cell_setting          triclinic
_symmetry_space_group_name_Hall 'P 1'
_symmetry_space_group_name_H-M  'P 1'
_symmetry_Int_Tables_number     1

_symmetry_equiv_pos_as_xyz 'x,y,z'

loop_
_atom_site_label
_atom_site_type_symbol
_atom_site_fract_x
_atom_site_fract_y
_atom_site_fract_z
_atom_site_charge
O1       O      0.488620000000     0.447990000000     0.055170000000     0          
O2       O      0.547230000000     0.530470000000     0.165550000000     0          
O3       O      0.589380000000     0.555910000000     0.094300000000     0          
O4       O      0.946700000000     0.867700000000     0.593200000000     0          
C5       C      0.578200000000     0.550020000000     0.149800000000     0          
C6       C      0.603160000000     0.568060000000     0.199400000000     0          
C7       C      0.636370000000     0.592000000000     0.185200000000     0          
H8       H      0.643290000000     0.596710000000     0.143830000000     0          
C9       C      0.659330000000     0.608990000000     0.232100000000     0          
H10      H      0.681790000000     0.625180000000     0.222490000000     0          
C11      C      0.649090000000     0.602000000000     0.293300000000     0          
C12      C      0.615900000000     0.578100000000     0.307550000000     0          
H13      H      0.608960000000     0.573380000000     0.348920000000     0          
C14      C      0.592920000000     0.561100000000     0.260600000000     0          
H15      H      0.570470000000     0.544910000000     0.270260000000     0          
C16      C      0.670700000000     0.618500000000     0.344000000000     0          
C17      C      0.688200000000     0.631300000000     0.387800000000     0          
C18      C      0.706700000000     0.645600000000     0.445000000000     0          
C19      C      0.736700000000     0.675400000000     0.444000000000     0          
H20      H      0.746300000000     0.686040000000     0.406660000000     0          
C21      C      0.836700000000     0.777200000000     0.519400000000     0          
C22      C      0.840900000000     0.808300000000     0.476800000000     0          
H23      H      0.823750000000     0.809570000000     0.442400000000     0          
C24      C      0.870500000000     0.837600000000     0.485200000000     0          
H25      H      0.873340000000     0.858660000000     0.456470000000     0          
C26      C      0.895900000000     0.835800000000     0.536200000000     0          
C27      C      0.891700000000     0.804700000000     0.578700000000     0          
H28      H      0.908850000000     0.803470000000     0.613130000000     0          
C29      C      0.862100000000     0.775400000000     0.570300000000     0          
H30      H      0.859250000000     0.754390000000     0.599060000000     0          
C31      C      0.925000000000     0.867300000000     0.543900000000     0          
O32      O      0.988620000000     0.947990000000     0.555170000000     0          
O33      O      0.047230000000     0.030470000000     0.665550000000     0          
O34      O      0.089380000000     0.055910000000     0.594300000000     0          
O35      O      0.446700000000     0.367700000000     0.093200000000     0          
C36      C      0.078200000000     0.050020000000     0.649800000000     0          
C37      C      0.103160000000     0.068060000000     0.699400000000     0          
C38      C      0.136370000000     0.092000000000     0.685200000000     0          
H39      H      0.143290000000     0.096710000000     0.643830000000     0          
C40      C      0.159330000000     0.108990000000     0.732100000000     0          
H41      H      0.181790000000     0.125180000000     0.722490000000     0          
C42      C      0.149090000000     0.102000000000     0.793300000000     0          
C43      C      0.115900000000     0.078100000000     0.807550000000     0          
H44      H      0.108960000000     0.073380000000     0.848920000000     0          
C45      C      0.092920000000     0.061100000000     0.760600000000     0          
H46      H      0.070470000000     0.044910000000     0.770260000000     0          
C47      C      0.170700000000     0.118500000000     0.844000000000     0          
C48      C      0.188200000000     0.131300000000     0.887800000000     0          
C49      C      0.206700000000     0.145600000000     0.945000000000     0          
C50      C      0.236700000000     0.175400000000     0.944000000000     0          
H51      H      0.246300000000     0.186040000000     0.906660000000     0          
C52      C      0.336700000000     0.277200000000     0.019400000000     0          
C53      C      0.340900000000     0.308300000000     0.976800000000     0          
H54      H      0.323750000000     0.309570000000     0.942400000000     0          
C55      C      0.370500000000     0.337600000000     0.985200000000     0          
H56      H      0.373340000000     0.358660000000     0.956470000000     0          
C57      C      0.395900000000     0.335800000000     0.036200000000     0          
C58      C      0.391700000000     0.304700000000     0.078700000000     0          
H59      H      0.408850000000     0.303470000000     0.113130000000     0          
C60      C      0.362100000000     0.275400000000     0.070300000000     0          
H61      H      0.359250000000     0.254390000000     0.099060000000     0          
C62      C      0.425000000000     0.367300000000     0.043900000000     0          
O63      O      0.511380000000     0.552010000000     0.055170000000     0          
O64      O      0.452770000000     0.469530000000     0.165550000000     0          
O65      O      0.410620000000     0.444090000000     0.094300000000     0          
O66      O      0.053300000000     0.132300000000     0.593200000000     0          
C67      C      0.421800000000     0.449980000000     0.149800000000     0          
C68      C      0.396840000000     0.431940000000     0.199400000000     0          
C69      C      0.363630000000     0.408000000000     0.185200000000     0          
H70      H      0.356710000000     0.403290000000     0.143830000000     0          
C71      C      0.340670000000     0.391010000000     0.232100000000     0          
H72      H      0.318210000000     0.374820000000     0.222490000000     0          
C73      C      0.350910000000     0.398000000000     0.293300000000     0          
C74      C      0.384100000000     0.421900000000     0.307550000000     0          
H75      H      0.391040000000     0.426620000000     0.348920000000     0          
C76      C      0.407080000000     0.438900000000     0.260600000000     0          
H77      H      0.429530000000     0.455090000000     0.270260000000     0          
C78      C      0.329300000000     0.381500000000     0.344000000000     0          
C79      C      0.311800000000     0.368700000000     0.387800000000     0          
C80      C      0.293300000000     0.354400000000     0.445000000000     0          
C81      C      0.263300000000     0.324600000000     0.444000000000     0          
H82      H      0.253700000000     0.313960000000     0.406660000000     0          
C83      C      0.163300000000     0.222800000000     0.519400000000     0          
C84      C      0.159100000000     0.191700000000     0.476800000000     0          
H85      H      0.176250000000     0.190430000000     0.442400000000     0          
C86      C      0.129500000000     0.162400000000     0.485200000000     0          
H87      H      0.126660000000     0.141340000000     0.456470000000     0          
C88      C      0.104100000000     0.164200000000     0.536200000000     0          
C89      C      0.108300000000     0.195300000000     0.578700000000     0          
H90      H      0.091150000000     0.196530000000     0.613130000000     0          
C91      C      0.137900000000     0.224600000000     0.570300000000     0          
H92      H      0.140750000000     0.245610000000     0.599060000000     0          
C93      C      0.075000000000     0.132700000000     0.543900000000     0          
O94      O      0.011380000000     0.052010000000     0.555170000000     0          
O95      O      0.952770000000     0.969530000000     0.665550000000     0          
O96      O      0.910620000000     0.944090000000     0.594300000000     0          
C97      C      0.921800000000     0.949980000000     0.649800000000     0          
C98      C      0.896840000000     0.931940000000     0.699400000000     0          
C99      C      0.863630000000     0.908000000000     0.685200000000     0          
H100     H      0.856710000000     0.903290000000     0.643830000000     0          
C101     C      0.840670000000     0.891010000000     0.732100000000     0          
H102     H      0.818210000000     0.874820000000     0.722490000000     0          
C103     C      0.850910000000     0.898000000000     0.793300000000     0          
C104     C      0.884100000000     0.921900000000     0.807550000000     0          
H105     H      0.891040000000     0.926620000000     0.848920000000     0          
C106     C      0.907080000000     0.938900000000     0.760600000000     0          
H107     H      0.929530000000     0.955090000000     0.770260000000     0          
C108     C      0.829300000000     0.881500000000     0.844000000000     0          
C109     C      0.811800000000     0.868700000000     0.887800000000     0          
C110     C      0.793300000000     0.854400000000     0.945000000000     0          
C111     C      0.763300000000     0.824600000000     0.944000000000     0          
H112     H      0.753700000000     0.813960000000     0.906660000000     0          
O113     O      0.552010000000     0.488620000000     0.055170000000     0          
O114     O      0.469530000000     0.547230000000     0.165550000000     0          
O115     O      0.444090000000     0.589380000000     0.094300000000     0          
O116     O      0.132300000000     0.946700000000     0.593200000000     0          
C117     C      0.449980000000     0.578200000000     0.149800000000     0          
C118     C      0.431940000000     0.603160000000     0.199400000000     0          
C119     C      0.408000000000     0.636370000000     0.185200000000     0          
H120     H      0.403290000000     0.643290000000     0.143830000000     0          
C121     C      0.391010000000     0.659330000000     0.232100000000     0          
H122     H      0.374820000000     0.681790000000     0.222490000000     0          
C123     C      0.398000000000     0.649090000000     0.293300000000     0          
C124     C      0.421900000000     0.615900000000     0.307550000000     0          
H125     H      0.426620000000     0.608960000000     0.348920000000     0          
C126     C      0.438900000000     0.592920000000     0.260600000000     0          
H127     H      0.455090000000     0.570470000000     0.270260000000     0          
C128     C      0.381500000000     0.670700000000     0.344000000000     0          
C129     C      0.368700000000     0.688200000000     0.387800000000     0          
C130     C      0.354400000000     0.706700000000     0.445000000000     0          
C131     C      0.324600000000     0.736700000000     0.444000000000     0          
H132     H      0.313960000000     0.746300000000     0.406660000000     0          
C133     C      0.222800000000     0.836700000000     0.519400000000     0          
C134     C      0.191700000000     0.840900000000     0.476800000000     0          
H135     H      0.190430000000     0.823750000000     0.442400000000     0          
C136     C      0.162400000000     0.870500000000     0.485200000000     0          
H137     H      0.141340000000     0.873340000000     0.456470000000     0          
C138     C      0.164200000000     0.895900000000     0.536200000000     0          
C139     C      0.195300000000     0.891700000000     0.578700000000     0          
H140     H      0.196530000000     0.908850000000     0.613130000000     0          
C141     C      0.224600000000     0.862100000000     0.570300000000     0          
H142     H      0.245610000000     0.859250000000     0.599060000000     0          
C143     C      0.132700000000     0.925000000000     0.543900000000     0          
O144     O      0.052010000000     0.988620000000     0.555170000000     0          
O145     O      0.969530000000     0.047230000000     0.665550000000     0          
O146     O      0.944090000000     0.089380000000     0.594300000000     0          
O147     O      0.632300000000     0.446700000000     0.093200000000     0          
C148     C      0.949980000000     0.078200000000     0.649800000000     0          
C149     C      0.931940000000     0.103160000000     0.699400000000     0          
C150     C      0.908000000000     0.136370000000     0.685200000000     0          
H151     H      0.903290000000     0.143290000000     0.643830000000     0          
C152     C      0.891010000000     0.159330000000     0.732100000000     0          
H153     H      0.874820000000     0.181790000000     0.722490000000     0          
C154     C      0.898000000000     0.149090000000     0.793300000000     0          
C155     C      0.921900000000     0.115900000000     0.807550000000     0          
H156     H      0.926620000000     0.108960000000     0.848920000000     0          
C157     C      0.938900000000     0.092920000000     0.760600000000     0          
H158     H      0.955090000000     0.070470000000     0.770260000000     0          
C159     C      0.881500000000     0.170700000000     0.844000000000     0          
C160     C      0.868700000000     0.188200000000     0.887800000000     0          
C161     C      0.854400000000     0.206700000000     0.945000000000     0          
C162     C      0.824600000000     0.236700000000     0.944000000000     0          
H163     H      0.813960000000     0.246300000000     0.906660000000     0          
C164     C      0.722800000000     0.336700000000     0.019400000000     0          
C165     C      0.691700000000     0.340900000000     0.976800000000     0          
H166     H      0.690430000000     0.323750000000     0.942400000000     0          
C167     C      0.662400000000     0.370500000000     0.985200000000     0          
H168     H      0.641340000000     0.373340000000     0.956470000000     0          
C169     C      0.664200000000     0.395900000000     0.036200000000     0          
C170     C      0.695300000000     0.391700000000     0.078700000000     0          
H171     H      0.696530000000     0.408850000000     0.113130000000     0          
C172     C      0.724600000000     0.362100000000     0.070300000000     0          
H173     H      0.745610000000     0.359250000000     0.099060000000     0          
C174     C      0.632700000000     0.425000000000     0.043900000000     0          
O175     O      0.447990000000     0.511380000000     0.055170000000     0          
O176     O      0.530470000000     0.452770000000     0.165550000000     0          
O177     O      0.555910000000     0.410620000000     0.094300000000     0          
C178     C      0.550020000000     0.421800000000     0.149800000000     0          
C179     C      0.568060000000     0.396840000000     0.199400000000     0          
C180     C      0.592000000000     0.363630000000     0.185200000000     0          
H181     H      0.596710000000     0.356710000000     0.143830000000     0          
C182     C      0.608990000000     0.340670000000     0.232100000000     0          
H183     H      0.625180000000     0.318210000000     0.222490000000     0          
C184     C      0.602000000000     0.350910000000     0.293300000000     0          
C185     C      0.578100000000     0.384100000000     0.307550000000     0          
H186     H      0.573380000000     0.391040000000     0.348920000000     0          
C187     C      0.561100000000     0.407080000000     0.260600000000     0          
H188     H      0.544910000000     0.429530000000     0.270260000000     0          
C189     C      0.618500000000     0.329300000000     0.344000000000     0          
C190     C      0.631300000000     0.311800000000     0.387800000000     0          
C191     C      0.645600000000     0.293300000000     0.445000000000     0          
C192     C      0.675400000000     0.263300000000     0.444000000000     0          
H193     H      0.686040000000     0.253700000000     0.406660000000     0          
O194     O      0.947990000000     0.011380000000     0.555170000000     0          
O195     O      0.030470000000     0.952770000000     0.665550000000     0          
O196     O      0.055910000000     0.910620000000     0.594300000000     0          
C197     C      0.050020000000     0.921800000000     0.649800000000     0          
C198     C      0.068060000000     0.896840000000     0.699400000000     0          
C199     C      0.092000000000     0.863630000000     0.685200000000     0          
H200     H      0.096710000000     0.856710000000     0.643830000000     0          
C201     C      0.108990000000     0.840670000000     0.732100000000     0          
H202     H      0.125180000000     0.818210000000     0.722490000000     0          
C203     C      0.102000000000     0.850910000000     0.793300000000     0          
C204     C      0.078100000000     0.884100000000     0.807550000000     0          
H205     H      0.073380000000     0.891040000000     0.848920000000     0          
C206     C      0.061100000000     0.907080000000     0.760600000000     0          
H207     H      0.044910000000     0.929530000000     0.770260000000     0          
C208     C      0.118500000000     0.829300000000     0.844000000000     0          
C209     C      0.131300000000     0.811800000000     0.887800000000     0          
C210     C      0.145600000000     0.793300000000     0.945000000000     0          
C211     C      0.175400000000     0.763300000000     0.944000000000     0          
H212     H      0.186040000000     0.753700000000     0.906660000000     0          
O213     O      0.511380000000     0.552010000000     0.944830000000     0          
O214     O      0.452770000000     0.469530000000     0.834450000000     0          
O215     O      0.410620000000     0.444090000000     0.905700000000     0          
C216     C      0.421800000000     0.449980000000     0.850200000000     0          
C217     C      0.396840000000     0.431940000000     0.800600000000     0          
C218     C      0.363630000000     0.408000000000     0.814800000000     0          
H219     H      0.356710000000     0.403290000000     0.856170000000     0          
C220     C      0.340670000000     0.391010000000     0.767900000000     0          
H221     H      0.318210000000     0.374820000000     0.777510000000     0          
C222     C      0.350910000000     0.398000000000     0.706700000000     0          
C223     C      0.384100000000     0.421900000000     0.692450000000     0          
H224     H      0.391040000000     0.426620000000     0.651080000000     0          
C225     C      0.407080000000     0.438900000000     0.739400000000     0          
H226     H      0.429530000000     0.455090000000     0.729740000000     0          
C227     C      0.329300000000     0.381500000000     0.656000000000     0          
C228     C      0.311800000000     0.368700000000     0.612200000000     0          
C229     C      0.293300000000     0.354400000000     0.555000000000     0          
C230     C      0.263300000000     0.324600000000     0.556000000000     0          
H231     H      0.253700000000     0.313960000000     0.593340000000     0          
O232     O      0.011380000000     0.052010000000     0.444830000000     0          
O233     O      0.952770000000     0.969530000000     0.334450000000     0          
O234     O      0.910620000000     0.944090000000     0.405700000000     0          
O235     O      0.553300000000     0.632300000000     0.906800000000     0          
C236     C      0.921800000000     0.949980000000     0.350200000000     0          
C237     C      0.896840000000     0.931940000000     0.300600000000     0          
C238     C      0.863630000000     0.908000000000     0.314800000000     0          
H239     H      0.856710000000     0.903290000000     0.356170000000     0          
C240     C      0.840670000000     0.891010000000     0.267900000000     0          
H241     H      0.818210000000     0.874820000000     0.277510000000     0          
C242     C      0.850910000000     0.898000000000     0.206700000000     0          
C243     C      0.884100000000     0.921900000000     0.192450000000     0          
H244     H      0.891040000000     0.926620000000     0.151080000000     0          
C245     C      0.907080000000     0.938900000000     0.239400000000     0          
H246     H      0.929530000000     0.955090000000     0.229740000000     0          
C247     C      0.829300000000     0.881500000000     0.156000000000     0          
C248     C      0.811800000000     0.868700000000     0.112200000000     0          
C249     C      0.793300000000     0.854400000000     0.055000000000     0          
C250     C      0.763300000000     0.824600000000     0.056000000000     0          
H251     H      0.753700000000     0.813960000000     0.093340000000     0          
C252     C      0.663300000000     0.722800000000     0.980600000000     0          
C253     C      0.659100000000     0.691700000000     0.023200000000     0          
H254     H      0.676250000000     0.690430000000     0.057600000000     0          
C255     C      0.629500000000     0.662400000000     0.014800000000     0          
H256     H      0.626660000000     0.641340000000     0.043530000000     0          
C257     C      0.604100000000     0.664200000000     0.963800000000     0          
C258     C      0.608300000000     0.695300000000     0.921300000000     0          
H259     H      0.591150000000     0.696530000000     0.886870000000     0          
C260     C      0.637900000000     0.724600000000     0.929700000000     0          
H261     H      0.640750000000     0.745610000000     0.900940000000     0          
C262     C      0.575000000000     0.632700000000     0.956100000000     0          
O263     O      0.488620000000     0.447990000000     0.944830000000     0          
O264     O      0.547230000000     0.530470000000     0.834450000000     0          
O265     O      0.589380000000     0.555910000000     0.905700000000     0          
C266     C      0.578200000000     0.550020000000     0.850200000000     0          
C267     C      0.603160000000     0.568060000000     0.800600000000     0          
C268     C      0.636370000000     0.592000000000     0.814800000000     0          
H269     H      0.643290000000     0.596710000000     0.856170000000     0          
C270     C      0.659330000000     0.608990000000     0.767900000000     0          
H271     H      0.681790000000     0.625180000000     0.777510000000     0          
C272     C      0.649090000000     0.602000000000     0.706700000000     0          
C273     C      0.615900000000     0.578100000000     0.692450000000     0          
H274     H      0.608960000000     0.573380000000     0.651080000000     0          
C275     C      0.592920000000     0.561100000000     0.739400000000     0          
H276     H      0.570470000000     0.544910000000     0.729740000000     0          
C277     C      0.670700000000     0.618500000000     0.656000000000     0          
C278     C      0.688200000000     0.631300000000     0.612200000000     0          
C279     C      0.706700000000     0.645600000000     0.555000000000     0          
C280     C      0.736700000000     0.675400000000     0.556000000000     0          
H281     H      0.746300000000     0.686040000000     0.593340000000     0          
O282     O      0.988620000000     0.947990000000     0.444830000000     0          
O283     O      0.047230000000     0.030470000000     0.334450000000     0          
O284     O      0.089380000000     0.055910000000     0.405700000000     0          
C285     C      0.078200000000     0.050020000000     0.350200000000     0          
C286     C      0.103160000000     0.068060000000     0.300600000000     0          
C287     C      0.136370000000     0.092000000000     0.314800000000     0          
H288     H      0.143290000000     0.096710000000     0.356170000000     0          
C289     C      0.159330000000     0.108990000000     0.267900000000     0          
H290     H      0.181790000000     0.125180000000     0.277510000000     0          
C291     C      0.149090000000     0.102000000000     0.206700000000     0          
C292     C      0.115900000000     0.078100000000     0.192450000000     0          
H293     H      0.108960000000     0.073380000000     0.151080000000     0          
C294     C      0.092920000000     0.061100000000     0.239400000000     0          
H295     H      0.070470000000     0.044910000000     0.229740000000     0          
C296     C      0.170700000000     0.118500000000     0.156000000000     0          
C297     C      0.188200000000     0.131300000000     0.112200000000     0          
C298     C      0.206700000000     0.145600000000     0.055000000000     0          
C299     C      0.236700000000     0.175400000000     0.056000000000     0          
H300     H      0.246300000000     0.186040000000     0.093340000000     0          
O301     O      0.447990000000     0.511380000000     0.944830000000     0          
O302     O      0.530470000000     0.452770000000     0.834450000000     0          
O303     O      0.555910000000     0.410620000000     0.905700000000     0          
O304     O      0.867700000000     0.053300000000     0.406800000000     0          
C305     C      0.550020000000     0.421800000000     0.850200000000     0          
C306     C      0.568060000000     0.396840000000     0.800600000000     0          
C307     C      0.592000000000     0.363630000000     0.814800000000     0          
H308     H      0.596710000000     0.356710000000     0.856170000000     0          
C309     C      0.608990000000     0.340670000000     0.767900000000     0          
H310     H      0.625180000000     0.318210000000     0.777510000000     0          
C311     C      0.602000000000     0.350910000000     0.706700000000     0          
C312     C      0.578100000000     0.384100000000     0.692450000000     0          
H313     H      0.573380000000     0.391040000000     0.651080000000     0          
C314     C      0.561100000000     0.407080000000     0.739400000000     0          
H315     H      0.544910000000     0.429530000000     0.729740000000     0          
C316     C      0.618500000000     0.329300000000     0.656000000000     0          
C317     C      0.631300000000     0.311800000000     0.612200000000     0          
C318     C      0.645600000000     0.293300000000     0.555000000000     0          
C319     C      0.675400000000     0.263300000000     0.556000000000     0          
H320     H      0.686040000000     0.253700000000     0.593340000000     0          
C321     C      0.777200000000     0.163300000000     0.480600000000     0          
C322     C      0.808300000000     0.159100000000     0.523200000000     0          
H323     H      0.809570000000     0.176250000000     0.557600000000     0          
C324     C      0.837600000000     0.129500000000     0.514800000000     0          
H325     H      0.858660000000     0.126660000000     0.543530000000     0          
C326     C      0.835800000000     0.104100000000     0.463800000000     0          
C327     C      0.804700000000     0.108300000000     0.421300000000     0          
H328     H      0.803470000000     0.091150000000     0.386870000000     0          
C329     C      0.775400000000     0.137900000000     0.429700000000     0          
H330     H      0.754390000000     0.140750000000     0.400940000000     0          
C331     C      0.867300000000     0.075000000000     0.456100000000     0          
O332     O      0.947990000000     0.011380000000     0.444830000000     0          
O333     O      0.030470000000     0.952770000000     0.334450000000     0          
O334     O      0.055910000000     0.910620000000     0.405700000000     0          
O335     O      0.367700000000     0.553300000000     0.906800000000     0          
C336     C      0.050020000000     0.921800000000     0.350200000000     0          
C337     C      0.068060000000     0.896840000000     0.300600000000     0          
C338     C      0.092000000000     0.863630000000     0.314800000000     0          
H339     H      0.096710000000     0.856710000000     0.356170000000     0          
C340     C      0.108990000000     0.840670000000     0.267900000000     0          
H341     H      0.125180000000     0.818210000000     0.277510000000     0          
C342     C      0.102000000000     0.850910000000     0.206700000000     0          
C343     C      0.078100000000     0.884100000000     0.192450000000     0          
H344     H      0.073380000000     0.891040000000     0.151080000000     0          
C345     C      0.061100000000     0.907080000000     0.239400000000     0          
H346     H      0.044910000000     0.929530000000     0.229740000000     0          
C347     C      0.118500000000     0.829300000000     0.156000000000     0          
C348     C      0.131300000000     0.811800000000     0.112200000000     0          
C349     C      0.145600000000     0.793300000000     0.055000000000     0          
C350     C      0.175400000000     0.763300000000     0.056000000000     0          
H351     H      0.186040000000     0.753700000000     0.093340000000     0          
C352     C      0.277200000000     0.663300000000     0.980600000000     0          
C353     C      0.308300000000     0.659100000000     0.023200000000     0          
H354     H      0.309570000000     0.676250000000     0.057600000000     0          
C355     C      0.337600000000     0.629500000000     0.014800000000     0          
H356     H      0.358660000000     0.626660000000     0.043530000000     0          
C357     C      0.335800000000     0.604100000000     0.963800000000     0          
C358     C      0.304700000000     0.608300000000     0.921300000000     0          
H359     H      0.303470000000     0.591150000000     0.886870000000     0          
C360     C      0.275400000000     0.637900000000     0.929700000000     0          
H361     H      0.254390000000     0.640750000000     0.900940000000     0          
C362     C      0.367300000000     0.575000000000     0.956100000000     0          
O363     O      0.552010000000     0.488620000000     0.944830000000     0          
O364     O      0.469530000000     0.547230000000     0.834450000000     0          
O365     O      0.444090000000     0.589380000000     0.905700000000     0          
C366     C      0.449980000000     0.578200000000     0.850200000000     0          
C367     C      0.431940000000     0.603160000000     0.800600000000     0          
C368     C      0.408000000000     0.636370000000     0.814800000000     0          
H369     H      0.403290000000     0.643290000000     0.856170000000     0          
C370     C      0.391010000000     0.659330000000     0.767900000000     0          
H371     H      0.374820000000     0.681790000000     0.777510000000     0          
C372     C      0.398000000000     0.649090000000     0.706700000000     0          
C373     C      0.421900000000     0.615900000000     0.692450000000     0          
H374     H      0.426620000000     0.608960000000     0.651080000000     0          
C375     C      0.438900000000     0.592920000000     0.739400000000     0          
H376     H      0.455090000000     0.570470000000     0.729740000000     0          
C377     C      0.381500000000     0.670700000000     0.656000000000     0          
C378     C      0.368700000000     0.688200000000     0.612200000000     0          
C379     C      0.354400000000     0.706700000000     0.555000000000     0          
C380     C      0.324600000000     0.736700000000     0.556000000000     0          
H381     H      0.313960000000     0.746300000000     0.593340000000     0          
O382     O      0.052010000000     0.988620000000     0.444830000000     0          
O383     O      0.969530000000     0.047230000000     0.334450000000     0          
O384     O      0.944090000000     0.089380000000     0.405700000000     0          
C385     C      0.949980000000     0.078200000000     0.350200000000     0          
C386     C      0.931940000000     0.103160000000     0.300600000000     0          
C387     C      0.908000000000     0.136370000000     0.314800000000     0          
H388     H      0.903290000000     0.143290000000     0.356170000000     0          
C389     C      0.891010000000     0.159330000000     0.267900000000     0          
H390     H      0.874820000000     0.181790000000     0.277510000000     0          
C391     C      0.898000000000     0.149090000000     0.206700000000     0          
C392     C      0.921900000000     0.115900000000     0.192450000000     0          
H393     H      0.926620000000     0.108960000000     0.151080000000     0          
C394     C      0.938900000000     0.092920000000     0.239400000000     0          
H395     H      0.955090000000     0.070470000000     0.229740000000     0          
C396     C      0.881500000000     0.170700000000     0.156000000000     0          
C397     C      0.868700000000     0.188200000000     0.112200000000     0          
C398     C      0.854400000000     0.206700000000     0.055000000000     0          
C399     C      0.824600000000     0.236700000000     0.056000000000     0          
H400     H      0.813960000000     0.246300000000     0.093340000000     0          
Zr401    Zr     0.500000000000     0.500000000000     0.113300000000     0          
Zr402    Zr     0.000000000000     0.000000000000     0.613300000000     0          
Zr403    Zr     0.500000000000     0.500000000000     0.886700000000     0          
Zr404    Zr     0.000000000000     0.000000000000     0.386700000000     0          
Zr405    Zr     0.540900000000     0.436710000000     0.000000000000     0          
Zr406    Zr     0.040900000000     0.936710000000     0.500000000000     0          
Zr407    Zr     0.459100000000     0.563290000000     0.000000000000     0          
Zr408    Zr     0.959100000000     0.063290000000     0.500000000000     0          
Zr409    Zr     0.563290000000     0.540900000000     0.000000000000     0          
Zr410    Zr     0.063290000000     0.040900000000     0.500000000000     0          
Zr411    Zr     0.436710000000     0.459100000000     0.000000000000     0          
Zr412    Zr     0.936710000000     0.959100000000     0.500000000000     0          
O413     O      0.924200000000     0.896080000000     0.500000000000     0          
C414     C      0.690800000000     0.631000000000     0.500000000000     0          
H415     H      0.669880000000     0.611770000000     0.500000000000     0          
C416     C      0.752000000000     0.688500000000     0.500000000000     0          
C417     C      0.781300000000     0.718200000000     0.500000000000     0          
C418     C      0.807400000000     0.743200000000     0.500000000000     0          
O419     O      0.424200000000     0.396080000000     0.000000000000     0          
C420     C      0.190800000000     0.131000000000     0.000000000000     0          
H421     H      0.169880000000     0.111770000000     0.000000000000     0          
C422     C      0.252000000000     0.188500000000     0.000000000000     0          
C423     C      0.281300000000     0.218200000000     0.000000000000     0          
C424     C      0.307400000000     0.243200000000     0.000000000000     0          
O425     O      0.075800000000     0.103920000000     0.500000000000     0          
C426     C      0.309200000000     0.369000000000     0.500000000000     0          
H427     H      0.330120000000     0.388230000000     0.500000000000     0          
C428     C      0.248000000000     0.311500000000     0.500000000000     0          
C429     C      0.218700000000     0.281800000000     0.500000000000     0          
C430     C      0.192600000000     0.256800000000     0.500000000000     0          
O431     O      0.575800000000     0.603920000000     0.000000000000     0          
C432     C      0.809200000000     0.869000000000     0.000000000000     0          
H433     H      0.830120000000     0.888230000000     0.000000000000     0          
C434     C      0.748000000000     0.811500000000     0.000000000000     0          
C435     C      0.718700000000     0.781800000000     0.000000000000     0          
C436     C      0.692600000000     0.756800000000     0.000000000000     0          
O437     O      0.103920000000     0.924200000000     0.500000000000     0          
C438     C      0.369000000000     0.690800000000     0.500000000000     0          
H439     H      0.388230000000     0.669880000000     0.500000000000     0          
C440     C      0.311500000000     0.752000000000     0.500000000000     0          
C441     C      0.281800000000     0.781300000000     0.500000000000     0          
C442     C      0.256800000000     0.807400000000     0.500000000000     0          
O443     O      0.603920000000     0.424200000000     0.000000000000     0          
C444     C      0.869000000000     0.190800000000     0.000000000000     0          
H445     H      0.888230000000     0.169880000000     0.000000000000     0          
C446     C      0.811500000000     0.252000000000     0.000000000000     0          
C447     C      0.781800000000     0.281300000000     0.000000000000     0          
C448     C      0.756800000000     0.307400000000     0.000000000000     0          
O449     O      0.896080000000     0.075800000000     0.500000000000     0          
C450     C      0.631000000000     0.309200000000     0.500000000000     0          
H451     H      0.611770000000     0.330120000000     0.500000000000     0          
C452     C      0.688500000000     0.248000000000     0.500000000000     0          
C453     C      0.718200000000     0.218700000000     0.500000000000     0          
C454     C      0.743200000000     0.192600000000     0.500000000000     0          
O455     O      0.396080000000     0.575800000000     0.000000000000     0          
C456     C      0.131000000000     0.809200000000     0.000000000000     0          
H457     H      0.111770000000     0.830120000000     0.000000000000     0          
C458     C      0.188500000000     0.748000000000     0.000000000000     0          
C459     C      0.218200000000     0.718700000000     0.000000000000     0          
C460     C      0.243200000000     0.692600000000     0.000000000000     0          


