data_XICYIT

_audit_creation_method RASPA-1.0
_audit_creation_date 2020-12-11
_audit_author_name 'Rocio Bueno-Perez'

_cell_length_a    13.57
_cell_length_b    19.8
_cell_length_c    28.39
_cell_angle_alpha 90
_cell_angle_beta  90
_cell_angle_gamma 90
_cell_volume      7628

_symmetry_cell_setting          orthorhombic
_symmetry_space_group_name_Hall 'P 1'
_symmetry_space_group_name_H-M  'P 1'
_symmetry_Int_Tables_number     1

_symmetry_equiv_pos_as_xyz 'x,y,z'

loop_
_atom_site_label
_atom_site_type_symbol
_atom_site_fract_x
_atom_site_fract_y
_atom_site_fract_z
_atom_site_charge
Zr1      Zr     0.806270000000     0.878070000000     0.873400000000     0          
Zr2      Zr     0.696100000000     0.116900000000     0.876400000000     0          
Zr4      Zr     0.612500000000     0.970000000000     0.821310000000     0          
S1       S      0.544000000000     0.743900000000     0.731000000000     0          
S2       S      0.563000000000     0.747900000000     0.023100000000     0          
S3       S      0.978400000000     0.255400000000     0.006600000000     0          
S4       S      0.971400000000     0.250900000000     0.741400000000     0          
S5       S      0.772900000000     0.008600000000     0.624600000000     0          
O1       O      0.636700000000     0.902100000000     0.881100000000     0          
O2       O      0.783000000000     0.946600000000     0.926400000000     0          
O3       O      0.921700000000     0.965500000000     0.866200000000     0          
O4       O      0.764400000000     0.944200000000     0.822000000000     0          
O5       O      0.703700000000     0.063800000000     0.806400000000     0          
O6       O      0.620100000000     0.026400000000     0.879700000000     0          
O7       O      0.733600000000     0.065500000000     0.944300000000     0          
O8       O      0.834800000000     0.073500000000     0.870000000000     0          
O13      O      0.748100000000     0.807600000000     0.925300000000     0          
O14      O      0.653100000000     0.864300000000     0.973700000000     0          
O15      O      0.435300000000     0.656100000000     0.083000000000     0          
O16      O      0.483300000000     0.559800000000     0.044700000000     0          
O17      O      0.088800000000     0.342900000000     0.681700000000     0          
O18      O      0.066000000000     0.433700000000     0.728100000000     0          
O19      O      0.726400000000     0.801300000000     0.828700000000     0          
O20      O      0.611500000000     0.862500000000     0.788600000000     0          
O21      O      0.801700000000     0.012500000000     0.732700000000     0          
O22      O      0.640900000000     0.977600000000     0.743000000000     0          
O23      O      0.635700000000     0.983500000000     0.506900000000     0          
O24      O      0.794600000000     0.018700000000     0.518000000000     0          
O25      O      0.489600000000     0.555000000000     0.699300000000     0          
O26      O      0.432600000000     0.650700000000     0.665300000000     0          
O27      O      0.049300000000     0.444800000000     0.028500000000     0          
O28      O      0.084800000000     0.350100000000     0.070500000000     0          
O29      O      0.897700000000     0.135000000000     0.955100000000     0          
O30      O      0.779100000000     0.190900000000     0.919200000000     0          
O31      O      0.869300000000     0.130900000000     0.780500000000     0          
O32      O      0.765700000000     0.192700000000     0.828100000000     0          
C1       C      0.661600000000     0.808200000000     0.801700000000     0          
C2       C      0.632600000000     0.745100000000     0.775000000000     0          
C3       C      0.659000000000     0.685100000000     0.786500000000     0          
H1       H      0.704900000000     0.676300000000     0.810200000000     0          
C4       C      0.613000000000     0.632400000000     0.759400000000     0          
H2       H      0.622300000000     0.586500000000     0.764600000000     0          
C5       C      0.551900000000     0.658000000000     0.724800000000     0          
C6       C      0.487300000000     0.618000000000     0.695200000000     0          
C7       C      0.683400000000     0.814200000000     0.957900000000     0          
C8       C      0.648000000000     0.746400000000     0.977400000000     0          
C9       C      0.673000000000     0.683100000000     0.966200000000     0          
H3       H      0.722400000000     0.673100000000     0.944700000000     0          
C10      C      0.617000000000     0.632100000000     0.990100000000     0          
H4       H      0.623000000000     0.586000000000     0.984400000000     0          
C11      C      0.555000000000     0.660600000000     0.022400000000     0          
C12      C      0.487900000000     0.623800000000     0.053900000000     0          
C13      C      0.853300000000     0.185100000000     0.945000000000     0          
C14      C      0.890000000000     0.254800000000     0.965500000000     0          
C15      C      0.850000000000     0.317400000000     0.955300000000     0          
H5       H      0.792200000000     0.324800000000     0.938300000000     0          
C16      C      0.909000000000     0.367500000000     0.974700000000     0          
H6       H      0.904000000000     0.413200000000     0.967500000000     0          
C17      C      0.978500000000     0.340800000000     0.006300000000     0          
C18      C      0.047100000000     0.381200000000     0.038500000000     0          
C19      C      0.832500000000     0.184500000000     0.799400000000     0          
C20      C      0.882000000000     0.247700000000     0.786000000000     0          
C21      C      0.865000000000     0.311100000000     0.803800000000     0          
H7       H      0.820900000000     0.320600000000     0.828100000000     0          
C22      C      0.925000000000     0.362200000000     0.779100000000     0          
H8       H      0.921100000000     0.408400000000     0.784600000000     0          
C23      C      0.984000000000     0.334300000000     0.748700000000     0          
C24      C      0.048200000000     0.375400000000     0.716400000000     0          
C25      C      0.715000000000     0.994500000000     0.720200000000     0          
C26      C      0.690500000000     0.991700000000     0.670400000000     0          
C27      C      0.599000000000     0.985000000000     0.648700000000     0          
H9       H      0.541800000000     0.985000000000     0.666600000000     0          
C28      C      0.594000000000     0.979000000000     0.599600000000     0          
H10      H      0.540100000000     0.965400000000     0.581900000000     0          
C29      C      0.688000000000     0.997500000000     0.582000000000     0          
C30      C      0.708000000000     0.000600000000     0.531700000000     0          
Zr7?     Zr     0.872100000000     0.024100000000     0.817200000000     0          
Zr9?     Zr     0.623300000000     0.967300000000     0.938200000000     0          
Zr10?    Zr     0.868400000000     0.032400000000     0.934200000000     0          
Zr1      Zr     0.693730000000     0.121930000000     0.373400000000     0          
Zr2      Zr     0.803900000000     0.883100000000     0.376400000000     0          
Zr4      Zr     0.887500000000     0.030000000000     0.321310000000     0          
S1       S      0.956000000000     0.256100000000     0.231000000000     0          
S2       S      0.937000000000     0.252100000000     0.523100000000     0          
S3       S      0.521600000000     0.744600000000     0.506600000000     0          
S4       S      0.528600000000     0.749100000000     0.241400000000     0          
S5       S      0.727100000000     0.991400000000     0.124600000000     0          
O1       O      0.863300000000     0.097900000000     0.381100000000     0          
O2       O      0.717000000000     0.053400000000     0.426400000000     0          
O3       O      0.578300000000     0.034500000000     0.366200000000     0          
O4       O      0.735600000000     0.055800000000     0.322000000000     0          
O5       O      0.796300000000     0.936200000000     0.306400000000     0          
O6       O      0.879900000000     0.973600000000     0.379700000000     0          
O7       O      0.766400000000     0.934500000000     0.444300000000     0          
O8       O      0.665200000000     0.926500000000     0.370000000000     0          
O13      O      0.751900000000     0.192400000000     0.425300000000     0          
O14      O      0.846900000000     0.135700000000     0.473700000000     0          
O15      O      0.064700000000     0.343900000000     0.583000000000     0          
O16      O      0.016700000000     0.440200000000     0.544700000000     0          
O17      O      0.411200000000     0.657100000000     0.181700000000     0          
O18      O      0.434000000000     0.566300000000     0.228100000000     0          
O19      O      0.773600000000     0.198700000000     0.328700000000     0          
O20      O      0.888500000000     0.137500000000     0.288600000000     0          
O21      O      0.698300000000     0.987500000000     0.232700000000     0          
O22      O      0.859100000000     0.022400000000     0.243000000000     0          
O23      O      0.864300000000     0.016500000000     0.006900000000     0          
O24      O      0.705400000000     0.981300000000     0.018000000000     0          
O25      O      0.010400000000     0.445000000000     0.199300000000     0          
O26      O      0.067400000000     0.349300000000     0.165300000000     0          
O27      O      0.450700000000     0.555200000000     0.528500000000     0          
O28      O      0.415200000000     0.649900000000     0.570500000000     0          
O29      O      0.602300000000     0.865000000000     0.455100000000     0          
O30      O      0.720900000000     0.809100000000     0.419200000000     0          
O31      O      0.630700000000     0.869100000000     0.280500000000     0          
O32      O      0.734300000000     0.807300000000     0.328100000000     0          
C1       C      0.838400000000     0.191800000000     0.301700000000     0          
C2       C      0.867400000000     0.254900000000     0.275000000000     0          
C3       C      0.841000000000     0.314900000000     0.286500000000     0          
H1       H      0.795100000000     0.323700000000     0.310200000000     0          
C4       C      0.887000000000     0.367600000000     0.259400000000     0          
H2       H      0.877700000000     0.413500000000     0.264600000000     0          
C5       C      0.948100000000     0.342000000000     0.224800000000     0          
C6       C      0.012700000000     0.382000000000     0.195200000000     0          
C7       C      0.816600000000     0.185800000000     0.457900000000     0          
C8       C      0.852000000000     0.253600000000     0.477400000000     0          
C9       C      0.827000000000     0.316900000000     0.466200000000     0          
H3       H      0.777600000000     0.326900000000     0.444700000000     0          
C10      C      0.883000000000     0.367900000000     0.490100000000     0          
H4       H      0.877000000000     0.414000000000     0.484400000000     0          
C11      C      0.945000000000     0.339400000000     0.522400000000     0          
C12      C      0.012100000000     0.376200000000     0.553900000000     0          
C13      C      0.646700000000     0.814900000000     0.445000000000     0          
C14      C      0.610000000000     0.745200000000     0.465500000000     0          
C15      C      0.650000000000     0.682600000000     0.455300000000     0          
H5       H      0.707800000000     0.675200000000     0.438300000000     0          
C16      C      0.591000000000     0.632500000000     0.474700000000     0          
H6       H      0.596000000000     0.586800000000     0.467500000000     0          
C17      C      0.521500000000     0.659200000000     0.506300000000     0          
C18      C      0.452900000000     0.618800000000     0.538500000000     0          
C19      C      0.667500000000     0.815500000000     0.299400000000     0          
C20      C      0.618000000000     0.752300000000     0.286000000000     0          
C21      C      0.635000000000     0.688900000000     0.303800000000     0          
H7       H      0.679100000000     0.679400000000     0.328100000000     0          
C22      C      0.575000000000     0.637800000000     0.279100000000     0          
H8       H      0.578900000000     0.591600000000     0.284600000000     0          
C23      C      0.516000000000     0.665700000000     0.248700000000     0          
C24      C      0.451800000000     0.624600000000     0.216400000000     0          
C25      C      0.785000000000     0.005500000000     0.220200000000     0          
C26      C      0.809500000000     0.008300000000     0.170400000000     0          
C27      C      0.901000000000     0.015000000000     0.148700000000     0          
H9       H      0.958200000000     0.015000000000     0.166600000000     0          
C28      C      0.906000000000     0.021000000000     0.099600000000     0          
H10      H      0.959900000000     0.034600000000     0.081900000000     0          
C29      C      0.812000000000     0.002500000000     0.082000000000     0          
C30      C      0.792000000000     0.999400000000     0.031700000000     0          
Zr7?     Zr     0.627900000000     0.975900000000     0.317200000000     0          
Zr9?     Zr     0.876700000000     0.032700000000     0.438200000000     0          
Zr10?    Zr     0.631600000000     0.967600000000     0.434200000000     0          
Zr1      Zr     0.306270000000     0.621930000000     0.126600000000     0          
Zr2      Zr     0.196100000000     0.383100000000     0.123600000000     0          
Zr4      Zr     0.112500000000     0.530000000000     0.178690000000     0          
S1       S      0.044000000000     0.756100000000     0.269000000000     0          
S2       S      0.063000000000     0.752100000000     0.976900000000     0          
S3       S      0.478400000000     0.244600000000     0.993400000000     0          
S4       S      0.471400000000     0.249100000000     0.258600000000     0          
S5       S      0.272900000000     0.491400000000     0.375400000000     0          
O1       O      0.136700000000     0.597900000000     0.118900000000     0          
O2       O      0.283000000000     0.553400000000     0.073600000000     0          
O3       O      0.421700000000     0.534500000000     0.133800000000     0          
O4       O      0.264400000000     0.555800000000     0.178000000000     0          
O5       O      0.203700000000     0.436200000000     0.193600000000     0          
O6       O      0.120100000000     0.473600000000     0.120300000000     0          
O7       O      0.233600000000     0.434500000000     0.055700000000     0          
O8       O      0.334800000000     0.426500000000     0.130000000000     0          
O13      O      0.248100000000     0.692400000000     0.074700000000     0          
O14      O      0.153100000000     0.635700000000     0.026300000000     0          
O15      O      0.935300000000     0.843900000000     0.917000000000     0          
O16      O      0.983300000000     0.940200000000     0.955300000000     0          
O17      O      0.588800000000     0.157100000000     0.318300000000     0          
O18      O      0.566000000000     0.066300000000     0.271900000000     0          
O19      O      0.226400000000     0.698700000000     0.171300000000     0          
O20      O      0.111500000000     0.637500000000     0.211400000000     0          
O21      O      0.301700000000     0.487500000000     0.267300000000     0          
O22      O      0.140900000000     0.522400000000     0.257000000000     0          
O23      O      0.135700000000     0.516500000000     0.493100000000     0          
O24      O      0.294600000000     0.481300000000     0.482000000000     0          
O25      O      0.989600000000     0.945000000000     0.300700000000     0          
O26      O      0.932600000000     0.849300000000     0.334700000000     0          
O27      O      0.549300000000     0.055200000000     0.971500000000     0          
O28      O      0.584800000000     0.149900000000     0.929500000000     0          
O29      O      0.397700000000     0.365000000000     0.044900000000     0          
O30      O      0.279100000000     0.309100000000     0.080800000000     0          
O31      O      0.369300000000     0.369100000000     0.219500000000     0          
O32      O      0.265700000000     0.307300000000     0.171900000000     0          
C1       C      0.161600000000     0.691800000000     0.198300000000     0          
C2       C      0.132600000000     0.754900000000     0.225000000000     0          
C3       C      0.159000000000     0.814900000000     0.213500000000     0          
H1       H      0.204900000000     0.823700000000     0.189800000000     0          
C4       C      0.113000000000     0.867600000000     0.240600000000     0          
H2       H      0.122300000000     0.913500000000     0.235400000000     0          
C5       C      0.051900000000     0.842000000000     0.275200000000     0          
C6       C      0.987300000000     0.882000000000     0.304800000000     0          
C7       C      0.183400000000     0.685800000000     0.042100000000     0          
C8       C      0.148000000000     0.753600000000     0.022600000000     0          
C9       C      0.173000000000     0.816900000000     0.033800000000     0          
H3       H      0.222400000000     0.826900000000     0.055300000000     0          
C10      C      0.117000000000     0.867900000000     0.009900000000     0          
H4       H      0.123000000000     0.914000000000     0.015600000000     0          
C11      C      0.055000000000     0.839400000000     0.977600000000     0          
C12      C      0.987900000000     0.876200000000     0.946100000000     0          
C13      C      0.353300000000     0.314900000000     0.055000000000     0          
C14      C      0.390000000000     0.245200000000     0.034500000000     0          
C15      C      0.350000000000     0.182600000000     0.044700000000     0          
H5       H      0.292200000000     0.175200000000     0.061700000000     0          
C16      C      0.409000000000     0.132500000000     0.025300000000     0          
H6       H      0.404000000000     0.086800000000     0.032500000000     0          
C17      C      0.478500000000     0.159200000000     0.993700000000     0          
C18      C      0.547100000000     0.118800000000     0.961500000000     0          
C19      C      0.332500000000     0.315500000000     0.200600000000     0          
C20      C      0.382000000000     0.252300000000     0.214000000000     0          
C21      C      0.365000000000     0.188900000000     0.196200000000     0          
H7       H      0.320900000000     0.179400000000     0.171900000000     0          
C22      C      0.425000000000     0.137800000000     0.220900000000     0          
H8       H      0.421100000000     0.091600000000     0.215400000000     0          
C23      C      0.484000000000     0.165700000000     0.251300000000     0          
C24      C      0.548200000000     0.124600000000     0.283600000000     0          
C25      C      0.215000000000     0.505500000000     0.279800000000     0          
C26      C      0.190500000000     0.508300000000     0.329600000000     0          
C27      C      0.099000000000     0.515000000000     0.351300000000     0          
H9       H      0.041800000000     0.515000000000     0.333400000000     0          
C28      C      0.094000000000     0.521000000000     0.400400000000     0          
H10      H      0.040100000000     0.534600000000     0.418100000000     0          
C29      C      0.188000000000     0.502500000000     0.418000000000     0          
C30      C      0.208000000000     0.499400000000     0.468300000000     0          
Zr7?     Zr     0.372100000000     0.475900000000     0.182800000000     0          
Zr9?     Zr     0.123300000000     0.532700000000     0.061800000000     0          
Zr10?    Zr     0.368400000000     0.467600000000     0.065800000000     0          
Zr1      Zr     0.193730000000     0.378070000000     0.626600000000     0          
Zr2      Zr     0.303900000000     0.616900000000     0.623600000000     0          
Zr4      Zr     0.387500000000     0.470000000000     0.678690000000     0          
S1       S      0.456000000000     0.243900000000     0.769000000000     0          
S2       S      0.437000000000     0.247900000000     0.476900000000     0          
S3       S      0.021600000000     0.755400000000     0.493400000000     0          
S4       S      0.028600000000     0.750900000000     0.758600000000     0          
S5       S      0.227100000000     0.508600000000     0.875400000000     0          
O1       O      0.363300000000     0.402100000000     0.618900000000     0          
O2       O      0.217000000000     0.446600000000     0.573600000000     0          
O3       O      0.078300000000     0.465500000000     0.633800000000     0          
O4       O      0.235600000000     0.444200000000     0.678000000000     0          
O5       O      0.296300000000     0.563800000000     0.693600000000     0          
O6       O      0.379900000000     0.526400000000     0.620300000000     0          
O7       O      0.266400000000     0.565500000000     0.555700000000     0          
O8       O      0.165200000000     0.573500000000     0.630000000000     0          
O13      O      0.251900000000     0.307600000000     0.574700000000     0          
O14      O      0.346900000000     0.364300000000     0.526300000000     0          
O15      O      0.564700000000     0.156100000000     0.417000000000     0          
O16      O      0.516700000000     0.059800000000     0.455300000000     0          
O17      O      0.911200000000     0.842900000000     0.818300000000     0          
O18      O      0.934000000000     0.933700000000     0.771900000000     0          
O19      O      0.273600000000     0.301300000000     0.671300000000     0          
O20      O      0.388500000000     0.362500000000     0.711400000000     0          
O21      O      0.198300000000     0.512500000000     0.767300000000     0          
O22      O      0.359100000000     0.477600000000     0.757000000000     0          
O23      O      0.364300000000     0.483500000000     0.993100000000     0          
O24      O      0.205400000000     0.518700000000     0.982000000000     0          
O25      O      0.510400000000     0.055000000000     0.800700000000     0          
O26      O      0.567400000000     0.150700000000     0.834700000000     0          
O27      O      0.950700000000     0.944800000000     0.471500000000     0          
O28      O      0.915200000000     0.850100000000     0.429500000000     0          
O29      O      0.102300000000     0.635000000000     0.544900000000     0          
O30      O      0.220900000000     0.690900000000     0.580800000000     0          
O31      O      0.130700000000     0.630900000000     0.719500000000     0          
O32      O      0.234300000000     0.692700000000     0.671900000000     0          
C1       C      0.338400000000     0.308200000000     0.698300000000     0          
C2       C      0.367400000000     0.245100000000     0.725000000000     0          
C3       C      0.341000000000     0.185100000000     0.713500000000     0          
H1       H      0.295100000000     0.176300000000     0.689800000000     0          
C4       C      0.387000000000     0.132400000000     0.740600000000     0          
H2       H      0.377700000000     0.086500000000     0.735400000000     0          
C5       C      0.448100000000     0.158000000000     0.775200000000     0          
C6       C      0.512700000000     0.118000000000     0.804800000000     0          
C7       C      0.316600000000     0.314200000000     0.542100000000     0          
C8       C      0.352000000000     0.246400000000     0.522600000000     0          
C9       C      0.327000000000     0.183100000000     0.533800000000     0          
H3       H      0.277600000000     0.173100000000     0.555300000000     0          
C10      C      0.383000000000     0.132100000000     0.509900000000     0          
H4       H      0.377000000000     0.086000000000     0.515600000000     0          
C11      C      0.445000000000     0.160600000000     0.477600000000     0          
C12      C      0.512100000000     0.123800000000     0.446100000000     0          
C13      C      0.146700000000     0.685100000000     0.555000000000     0          
C14      C      0.110000000000     0.754800000000     0.534500000000     0          
C15      C      0.150000000000     0.817400000000     0.544700000000     0          
H5       H      0.207800000000     0.824800000000     0.561700000000     0          
C16      C      0.091000000000     0.867500000000     0.525300000000     0          
H6       H      0.096000000000     0.913200000000     0.532500000000     0          
C17      C      0.021500000000     0.840800000000     0.493700000000     0          
C18      C      0.952900000000     0.881200000000     0.461500000000     0          
C19      C      0.167500000000     0.684500000000     0.700600000000     0          
C20      C      0.118000000000     0.747700000000     0.714000000000     0          
C21      C      0.135000000000     0.811100000000     0.696200000000     0          
H7       H      0.179100000000     0.820600000000     0.671900000000     0          
C22      C      0.075000000000     0.862200000000     0.720900000000     0          
H8       H      0.078900000000     0.908400000000     0.715400000000     0          
C23      C      0.016000000000     0.834300000000     0.751300000000     0          
C24      C      0.951800000000     0.875400000000     0.783600000000     0          
C25      C      0.285000000000     0.494500000000     0.779800000000     0          
C26      C      0.309500000000     0.491700000000     0.829600000000     0          
C27      C      0.401000000000     0.485000000000     0.851300000000     0          
H9       H      0.458200000000     0.485000000000     0.833400000000     0          
C28      C      0.406000000000     0.479000000000     0.900400000000     0          
H10      H      0.459900000000     0.465400000000     0.918100000000     0          
C29      C      0.312000000000     0.497500000000     0.918000000000     0          
C30      C      0.292000000000     0.500600000000     0.968300000000     0          
Zr7?     Zr     0.127900000000     0.524100000000     0.682800000000     0          
Zr9?     Zr     0.376700000000     0.467300000000     0.561800000000     0          
Zr10?    Zr     0.131600000000     0.532400000000     0.565800000000     0          


