data_ZESTID

_audit_creation_method RASPA-1.0
_audit_creation_date 2020-11-2
_audit_author_name 'Rocio Bueno-Perez'

_cell_length_a    10.624
_cell_length_b    19.309
_cell_length_c    19.483
_cell_angle_alpha 63.46
_cell_angle_beta  77.79
_cell_angle_gamma 83.38
_cell_volume      3493.69

_symmetry_cell_setting          triclinic
_symmetry_space_group_name_Hall 'P 1'
_symmetry_space_group_name_H-M  'P 1'
_symmetry_Int_Tables_number     1

_symmetry_equiv_pos_as_xyz 'x,y,z'

loop_
_atom_site_label
_atom_site_type_symbol
_atom_site_fract_x
_atom_site_fract_y
_atom_site_fract_z
_atom_site_charge
Zr1      Zr     0.442650000000     0.933560000000     0.142950000000     0          
Zr2      Zr     0.724250000000     0.945540000000     0.006500000000     0          
O3       O      0.585600000000     0.863380000000     0.211250000000     0          
O4       O      0.768100000000     0.864700000000     0.127970000000     0          
O5       O      0.629600000000     0.184870000000     0.798740000000     0          
O6       O      0.634200000000     0.217000000000     0.894030000000     0          
O7       O      0.619300000000     0.999000000000     0.077300000000     0          
O8       O      0.551800000000     0.882900000000     0.068300000000     0          
O9       O      0.326800000000     0.936700000000     0.061420000000     0          
O10      O      0.897600000000     0.985100000000     0.017500000000     0          
C11      C      0.900500000000     0.630200000000     0.469100000000     0          
C12      C      0.844700000000     0.562600000000     0.523400000000     0          
H13      H      0.761610000000     0.539670000000     0.511410000000     0          
C14      C      0.883100000000     0.518900000000     0.593800000000     0          
C15      C      0.986300000000     0.545100000000     0.608800000000     0          
H16      H      0.023370000000     0.509890000000     0.665810000000     0          
C17      C      0.045400000000     0.613000000000     0.556200000000     0          
C18      C      0.001000000000     0.654800000000     0.487300000000     0          
H19      H      0.049950000000     0.711580000000     0.444400000000     0          
C20      C      0.851100000000     0.678900000000     0.397600000000     0          
C21      C      0.720600000000     0.685400000000     0.396500000000     0          
C22      C      0.673100000000     0.735900000000     0.330600000000     0          
H23      H      0.564930000000     0.740980000000     0.331230000000     0          
C24      C      0.755000000000     0.781600000000     0.262200000000     0          
C25      C      0.885100000000     0.772100000000     0.261300000000     0          
H26      H      0.955310000000     0.804960000000     0.205140000000     0          
C27      C      0.932200000000     0.723000000000     0.327900000000     0          
H28      H      0.040960000000     0.718990000000     0.324930000000     0          
C29      C      0.700800000000     0.840200000000     0.194800000000     0          
C30      C      0.819300000000     0.446800000000     0.653200000000     0          
C31      C      0.762900000000     0.399800000000     0.632200000000     0          
H32      H      0.760750000000     0.417860000000     0.568170000000     0          
C33      C      0.707900000000     0.330300000000     0.687100000000     0          
H34      H      0.664250000000     0.292290000000     0.667620000000     0          
C35      C      0.705200000000     0.306400000000     0.765100000000     0          
C36      C      0.756500000000     0.352600000000     0.786800000000     0          
H37      H      0.752900000000     0.335400000000     0.851280000000     0          
C38      C      0.814200000000     0.421200000000     0.732500000000     0          
H39      H      0.859120000000     0.458270000000     0.752530000000     0          
C40      C      0.651300000000     0.230600000000     0.823300000000     0          
H41      H      0.201890000000     0.692090000000     0.530290000000     0          
C42      C      0.130700000000     0.653200000000     0.582800000000     0          
H43      H      0.185810000000     0.607380000000     0.627840000000     0          
H44      H      0.067010000000     0.689630000000     0.609790000000     0          
Zr45     Zr     0.557350000000     0.066440000000     0.857050000000     0          
Zr46     Zr     0.275750000000     0.054460000000     0.993500000000     0          
O47      O      0.414400000000     0.136620000000     0.788750000000     0          
O48      O      0.231900000000     0.135300000000     0.872030000000     0          
O49      O      0.370400000000     0.815130000000     0.201260000000     0          
O50      O      0.365800000000     0.783000000000     0.105970000000     0          
O51      O      0.380700000000     0.001000000000     0.922700000000     0          
O52      O      0.448200000000     0.117100000000     0.931700000000     0          
O53      O      0.673200000000     0.063300000000     0.938580000000     0          
O54      O      0.102400000000     0.014900000000     0.982500000000     0          
C55      C      0.099500000000     0.369800000000     0.530900000000     0          
C56      C      0.155300000000     0.437400000000     0.476600000000     0          
H57      H      0.238390000000     0.460330000000     0.488590000000     0          
C58      C      0.116900000000     0.481100000000     0.406200000000     0          
C59      C      0.013700000000     0.454900000000     0.391200000000     0          
H60      H      0.976630000000     0.490110000000     0.334190000000     0          
C61      C      0.954600000000     0.387000000000     0.443800000000     0          
C62      C      0.999000000000     0.345200000000     0.512700000000     0          
H63      H      0.950050000000     0.288420000000     0.555600000000     0          
C64      C      0.148900000000     0.321100000000     0.602400000000     0          
C65      C      0.279400000000     0.314600000000     0.603500000000     0          
C66      C      0.326900000000     0.264100000000     0.669400000000     0          
H67      H      0.435070000000     0.259020000000     0.668770000000     0          
C68      C      0.245000000000     0.218400000000     0.737800000000     0          
C69      C      0.114900000000     0.227900000000     0.738700000000     0          
H70      H      0.044690000000     0.195040000000     0.794860000000     0          
C71      C      0.067800000000     0.277000000000     0.672100000000     0          
H72      H      0.959040000000     0.281010000000     0.675070000000     0          
C73      C      0.299200000000     0.159800000000     0.805200000000     0          
C74      C      0.180700000000     0.553200000000     0.346800000000     0          
C75      C      0.237100000000     0.600200000000     0.367800000000     0          
H76      H      0.239250000000     0.582140000000     0.431830000000     0          
C77      C      0.292100000000     0.669700000000     0.312900000000     0          
H78      H      0.335750000000     0.707710000000     0.332380000000     0          
C79      C      0.294800000000     0.693600000000     0.234900000000     0          
C80      C      0.243500000000     0.647400000000     0.213200000000     0          
H81      H      0.247100000000     0.664600000000     0.148720000000     0          
C82      C      0.185800000000     0.578800000000     0.267500000000     0          
H83      H      0.140880000000     0.541730000000     0.247470000000     0          
C84      C      0.348700000000     0.769400000000     0.176700000000     0          
C85      C      0.815400000000     0.375300000000     0.434300000000     0          
H86      H      0.788110000000     0.312110000000     0.471260000000     0          
H87      H      0.814990000000     0.391590000000     0.370430000000     0          
C88      C      0.000000000000     0.966200000000     0.006400000000     0          
H89      H      0.742790000000     0.413770000000     0.454360000000     0          
Zr90     Zr     0.564790000000     0.115880000000     0.008800000000     0          
O91      O      0.464000000000     0.992180000000     0.213260000000     0          
O92      O      0.541700000000     0.108820000000     0.129790000000     0          
O93      O      0.751900000000     0.057360000000     0.796140000000     0          
O94      O      0.862300000000     0.982000000000     0.890570000000     0          
O95      O      0.393400000000     0.052700000000     0.070600000000     0          
O96      O      0.449600000000     0.218200000000     0.011000000000     0          
O97      O      0.744500000000     0.150800000000     0.019300000000     0          
C98      C      0.445100000000     0.121600000000     0.465900000000     0          
C99      C      0.333700000000     0.103300000000     0.521400000000     0          
H100     H      0.245500000000     0.084290000000     0.510120000000     0          
C101     C      0.324300000000     0.107100000000     0.591300000000     0          
C102     C      0.429900000000     0.130300000000     0.606800000000     0          
H103     H      0.424650000000     0.131720000000     0.665210000000     0          
C104     C      0.540900000000     0.151600000000     0.552100000000     0          
C105     C      0.547400000000     0.147100000000     0.482700000000     0          
H106     H      0.640670000000     0.165160000000     0.438290000000     0          
C107     C      0.454200000000     0.109100000000     0.395300000000     0          
C108     C      0.389600000000     0.050600000000     0.397200000000     0          
H109     H      0.323190000000     0.012530000000     0.452940000000     0          
C110     C      0.401500000000     0.035300000000     0.333300000000     0          
H111     H      0.345960000000     0.986030000000     0.337490000000     0          
C112     C      0.479500000000     0.078600000000     0.264300000000     0          
C113     C      0.543700000000     0.139900000000     0.259100000000     0          
H114     H      0.606390000000     0.178170000000     0.201730000000     0          
C115     C      0.532200000000     0.155200000000     0.323700000000     0          
H116     H      0.586520000000     0.205490000000     0.318310000000     0          
C117     C      0.496100000000     0.058900000000     0.197000000000     0          
C118     C      0.203500000000     0.085900000000     0.650500000000     0          
C119     C      0.084500000000     0.108600000000     0.628600000000     0          
H120     H      0.077690000000     0.143780000000     0.564380000000     0          
C121     C      0.971000000000     0.089200000000     0.684000000000     0          
H122     H      0.873780000000     0.109580000000     0.664810000000     0          
C123     C      0.975700000000     0.045700000000     0.761500000000     0          
C124     C      0.094900000000     0.022400000000     0.784300000000     0          
H125     H      0.100580000000     0.986440000000     0.848590000000     0          
C126     C      0.207200000000     0.042400000000     0.729700000000     0          
H127     H      0.303750000000     0.022940000000     0.749990000000     0          
C128     C      0.854200000000     0.026900000000     0.820600000000     0          
C129     C      0.655700000000     0.177400000000     0.570000000000     0          
H130     H      0.727600000000     0.207220000000     0.513740000000     0          
H131     H      0.704270000000     0.124720000000     0.612810000000     0          
H132     H      0.620920000000     0.219530000000     0.596800000000     0          
C133     C      0.848600000000     0.167000000000     0.990700000000     0          
Zr134    Zr     0.435210000000     0.884120000000     0.991200000000     0          
O135     O      0.536000000000     0.007820000000     0.786740000000     0          
O136     O      0.458300000000     0.891180000000     0.870210000000     0          
O137     O      0.248100000000     0.942640000000     0.203860000000     0          
O138     O      0.137700000000     0.018000000000     0.109430000000     0          
O139     O      0.606600000000     0.947300000000     0.929400000000     0          
O140     O      0.550400000000     0.781800000000     0.989000000000     0          
O141     O      0.255500000000     0.849200000000     0.980700000000     0          
C142     C      0.554900000000     0.878400000000     0.534100000000     0          
C143     C      0.666300000000     0.896700000000     0.478600000000     0          
H144     H      0.754500000000     0.915710000000     0.489880000000     0          
C145     C      0.675700000000     0.892900000000     0.408700000000     0          
C146     C      0.570100000000     0.869700000000     0.393200000000     0          
H147     H      0.575350000000     0.868280000000     0.334790000000     0          
C148     C      0.459100000000     0.848400000000     0.447900000000     0          
C149     C      0.452600000000     0.852900000000     0.517300000000     0          
H150     H      0.359330000000     0.834840000000     0.561710000000     0          
C151     C      0.545800000000     0.890900000000     0.604700000000     0          
C152     C      0.610400000000     0.949400000000     0.602800000000     0          
H153     H      0.676810000000     0.987470000000     0.547060000000     0          
C154     C      0.598500000000     0.964700000000     0.666700000000     0          
H155     H      0.654040000000     0.013970000000     0.662510000000     0          
C156     C      0.520500000000     0.921400000000     0.735700000000     0          
C157     C      0.456300000000     0.860100000000     0.740900000000     0          
H158     H      0.393610000000     0.821830000000     0.798270000000     0          
C159     C      0.467800000000     0.844800000000     0.676300000000     0          
H160     H      0.413480000000     0.794510000000     0.681690000000     0          
C161     C      0.503900000000     0.941100000000     0.803000000000     0          
C162     C      0.796500000000     0.914100000000     0.349500000000     0          
C163     C      0.915500000000     0.891400000000     0.371400000000     0          
H164     H      0.922310000000     0.856220000000     0.435620000000     0          
C165     C      0.029000000000     0.910800000000     0.316000000000     0          
H166     H      0.126220000000     0.890420000000     0.335190000000     0          
C167     C      0.024300000000     0.954300000000     0.238500000000     0          
C168     C      0.905100000000     0.977600000000     0.215700000000     0          
H169     H      0.899420000000     0.013560000000     0.151410000000     0          
C170     C      0.792800000000     0.957600000000     0.270300000000     0          
H171     H      0.695530000000     0.976640000000     0.250890000000     0          
C172     C      0.145800000000     0.973100000000     0.179400000000     0          
C173     C      0.344300000000     0.822600000000     0.430000000000     0          
H174     H      0.335740000000     0.757080000000     0.463910000000     0          
H175     H      0.359070000000     0.839580000000     0.364840000000     0          
H176     H      0.252400000000     0.851890000000     0.447900000000     0          
C177     C      0.151400000000     0.833000000000     0.009300000000     0          
O178     O      0.808200000000     0.837900000000     0.999700000000     0          
O179     O      0.191800000000     0.162100000000     0.000300000000     0          
H180     H      0.556530000000     0.216670000000     0.999340000000     0          
H181     H      0.952890000000     0.183230000000     0.962050000000     0          
H182     H      0.657330000000     0.780270000000     0.977340000000     0          
H183     H      0.047110000000     0.816770000000     0.037950000000     0          
H184     H      0.915130000000     0.836370000000     0.988040000000     0          
H185     H      0.298730000000     0.160570000000     0.988640000000     0          


